Flow Title=SS staggered
Program Version=4.10
Number of Profiles= 19 
Profile Names=PF 1,PF 2,PF 3,PF 4,PF 5,PF 6,PF 7,PF 8,PF 9,PF 10,PF 11,PF 12,PF 13,PF 14,PF 15,PF 16,PF 17,PF 18,PF 19
River Rch & RM=test,test            ,99750   
     100     150     200     250     300     350     400     450     500     550
     600     650     700     750     800     850     900     950    1000
Boundary for River Rch & Prof#=test,test            , 1 
Up Type= 0 
Dn Type= 3 
Dn Slope=0.0006
Boundary for River Rch & Prof#=test,test            , 2 
Up Type= 0 
Dn Type= 3 
Dn Slope=0.0006
Boundary for River Rch & Prof#=test,test            , 3 
Up Type= 0 
Dn Type= 3 
Dn Slope=0.0006
Boundary for River Rch & Prof#=test,test            , 4 
Up Type= 0 
Dn Type= 3 
Dn Slope=0.0006
Boundary for River Rch & Prof#=test,test            , 5 
Up Type= 0 
Dn Type= 3 
Dn Slope=0.0006
Boundary for River Rch & Prof#=test,test            , 6 
Up Type= 0 
Dn Type= 3 
Dn Slope=0.0006
Boundary for River Rch & Prof#=test,test            , 7 
Up Type= 0 
Dn Type= 3 
Dn Slope=0.0006
Boundary for River Rch & Prof#=test,test            , 8 
Up Type= 0 
Dn Type= 3 
Dn Slope=0.0006
Boundary for River Rch & Prof#=test,test            , 9 
Up Type= 0 
Dn Type= 3 
Dn Slope=0.0006
Boundary for River Rch & Prof#=test,test            , 10 
Up Type= 0 
Dn Type= 3 
Dn Slope=0.0006
Boundary for River Rch & Prof#=test,test            , 11 
Up Type= 0 
Dn Type= 3 
Dn Slope=0.0006
Boundary for River Rch & Prof#=test,test            , 12 
Up Type= 0 
Dn Type= 3 
Dn Slope=0.0006
Boundary for River Rch & Prof#=test,test            , 13 
Up Type= 0 
Dn Type= 3 
Dn Slope=0.0006
Boundary for River Rch & Prof#=test,test            , 14 
Up Type= 0 
Dn Type= 3 
Dn Slope=0.0006
Boundary for River Rch & Prof#=test,test            , 15 
Up Type= 0 
Dn Type= 3 
Dn Slope=0.0006
Boundary for River Rch & Prof#=test,test            , 16 
Up Type= 0 
Dn Type= 3 
Dn Slope=0.0006
Boundary for River Rch & Prof#=test,test            , 17 
Up Type= 0 
Dn Type= 3 
Dn Slope=0.0006
Boundary for River Rch & Prof#=test,test            , 18 
Up Type= 0 
Dn Type= 3 
Dn Slope=0.0006
Boundary for River Rch & Prof#=test,test            , 19 
Up Type= 0 
Dn Type= 3 
Dn Slope=0.0006
DSS Import StartDate=
DSS Import StartTime=
DSS Import EndDate=
DSS Import EndTime=
DSS Import GetInterval= 0 
DSS Import Interval=
DSS Import GetPeak= 0 
DSS Import FillOption= 0 
