Geom Title=Geom_Uber
Program Version=4.10
Viewing Rectangle= 0 , 1 , 1 , 0 

River Reach=test            ,test            
Reach XY= 2 
-0.06527249683140.55766793409379 0.97021546261090.55766793409379
Rch Text X Y=0.1935995,0.5576679
Reverse River Text= 0 

Type RM Length L Ch R = 1 ,30000   ,100,100,100
Node Last Edited Time=Sep/25/2012 13:09:43
#Sta/Elev= 6 
       0     110      40     110      40     100      60     100      60     110
     100     110
#Mann= 3 , 0 , 0 
       0     .02       0      40     .02       0      60     .02       0
Bank Sta=40,60
XS Rating Curve= 0 ,0
XS HTab Starting El and Incr=100,0.1, 100 
Exp/Cntr=0.3,0.1

Type RM Length L Ch R = 1 ,29900.* ,100,100,100
Node Last Edited Time=Sep/25/2012 13:09:43
#Sta/Elev= 6 
       0   109.9      40   109.9      40    99.9      60    99.9      60   109.9
     100   109.9
#Mann= 3 , 0 , 0 
       0     .02       0      40     .02       0      60     .02       0
Bank Sta=40,60
XS Rating Curve= 0 ,0
XS HTab Starting El and Incr=99.9,0.1, 100 
Exp/Cntr=0.3,0.1

Type RM Length L Ch R = 1 ,29800.* ,100,100,100
Node Last Edited Time=Sep/25/2012 13:09:43
#Sta/Elev= 6 
       0   109.8      40   109.8      40    99.8      60    99.8      60   109.8
     100   109.8
#Mann= 3 , 0 , 0 
       0     .02       0      40     .02       0      60     .02       0
Bank Sta=40,60
XS Rating Curve= 0 ,0
XS HTab Starting El and Incr=99.8,0.1, 100 
Exp/Cntr=0.3,0.1

Type RM Length L Ch R = 1 ,29700.* ,100,100,100
Node Last Edited Time=Sep/25/2012 13:09:43
#Sta/Elev= 6 
       0   109.7      40   109.7      40    99.7      60    99.7      60   109.7
     100   109.7
#Mann= 3 , 0 , 0 
       0     .02       0      40     .02       0      60     .02       0
Bank Sta=40,60
XS Rating Curve= 0 ,0
XS HTab Starting El and Incr=99.7,0.1, 100 
Exp/Cntr=0.3,0.1

Type RM Length L Ch R = 1 ,29600.* ,100,100,100
Node Last Edited Time=Sep/25/2012 13:09:43
#Sta/Elev= 6 
       0   109.6      40   109.6      40    99.6      60    99.6      60   109.6
     100   109.6
#Mann= 3 , 0 , 0 
       0     .02       0      40     .02       0      60     .02       0
Bank Sta=40,60
XS Rating Curve= 0 ,0
XS HTab Starting El and Incr=99.6,0.1, 100 
Exp/Cntr=0.3,0.1

Type RM Length L Ch R = 1 ,29500.* ,100,100,100
Node Last Edited Time=Sep/25/2012 13:09:43
#Sta/Elev= 6 
       0   109.5      40   109.5      40    99.5      60    99.5      60   109.5
     100   109.5
#Mann= 3 , 0 , 0 
       0     .02       0      40     .02       0      60     .02       0
Bank Sta=40,60
XS Rating Curve= 0 ,0
XS HTab Starting El and Incr=99.5,0.1, 100 
Exp/Cntr=0.3,0.1

Type RM Length L Ch R = 1 ,29400.* ,100,100,100
Node Last Edited Time=Sep/25/2012 13:09:43
#Sta/Elev= 6 
       0   109.4      40   109.4      40    99.4      60    99.4      60   109.4
     100   109.4
#Mann= 3 , 0 , 0 
       0     .02       0      40     .02       0      60     .02       0
Bank Sta=40,60
XS Rating Curve= 0 ,0
XS HTab Starting El and Incr=99.4,0.1, 100 
Exp/Cntr=0.3,0.1

Type RM Length L Ch R = 1 ,29300.* ,100,100,100
Node Last Edited Time=Sep/25/2012 13:09:43
#Sta/Elev= 6 
       0   109.3      40   109.3      40    99.3      60    99.3      60   109.3
     100   109.3
#Mann= 3 , 0 , 0 
       0     .02       0      40     .02       0      60     .02       0
Bank Sta=40,60
XS Rating Curve= 0 ,0
XS HTab Starting El and Incr=99.3,0.1, 100 
Exp/Cntr=0.3,0.1

Type RM Length L Ch R = 1 ,29200.* ,100,100,100
Node Last Edited Time=Sep/25/2012 13:09:43
#Sta/Elev= 6 
       0   109.2      40   109.2      40    99.2      60    99.2      60   109.2
     100   109.2
#Mann= 3 , 0 , 0 
       0     .02       0      40     .02       0      60     .02       0
Bank Sta=40,60
XS Rating Curve= 0 ,0
XS HTab Starting El and Incr=99.2,0.1, 100 
Exp/Cntr=0.3,0.1

Type RM Length L Ch R = 1 ,29100.* ,100,100,100
Node Last Edited Time=Sep/25/2012 13:09:43
#Sta/Elev= 6 
       0   109.1      40   109.1      40    99.1      60    99.1      60   109.1
     100   109.1
#Mann= 3 , 0 , 0 
       0     .02       0      40     .02       0      60     .02       0
Bank Sta=40,60
XS Rating Curve= 0 ,0
XS HTab Starting El and Incr=99.1,0.1, 100 
Exp/Cntr=0.3,0.1

Type RM Length L Ch R = 1 ,29000.* ,100,100,100
Node Last Edited Time=Sep/25/2012 13:09:43
#Sta/Elev= 6 
       0     109      40     109      40      99      60      99      60     109
     100     109
#Mann= 3 , 0 , 0 
       0     .02       0      40     .02       0      60     .02       0
Bank Sta=40,60
XS Rating Curve= 0 ,0
XS HTab Starting El and Incr=99,0.1, 100 
Exp/Cntr=0.3,0.1

Type RM Length L Ch R = 1 ,28900.* ,100,100,100
Node Last Edited Time=Sep/25/2012 13:09:43
#Sta/Elev= 6 
       0   108.9      40   108.9      40    98.9      60    98.9      60   108.9
     100   108.9
#Mann= 3 , 0 , 0 
       0     .02       0      40     .02       0      60     .02       0
Bank Sta=40,60
XS Rating Curve= 0 ,0
XS HTab Starting El and Incr=98.9,0.1, 100 
Exp/Cntr=0.3,0.1

Type RM Length L Ch R = 1 ,28800.* ,100,100,100
Node Last Edited Time=Sep/25/2012 13:09:43
#Sta/Elev= 6 
       0   108.8      40   108.8      40    98.8      60    98.8      60   108.8
     100   108.8
#Mann= 3 , 0 , 0 
       0     .02       0      40     .02       0      60     .02       0
Bank Sta=40,60
XS Rating Curve= 0 ,0
XS HTab Starting El and Incr=98.8,0.1, 100 
Exp/Cntr=0.3,0.1

Type RM Length L Ch R = 1 ,28700.* ,100,100,100
Node Last Edited Time=Sep/25/2012 13:09:43
#Sta/Elev= 6 
       0   108.7      40   108.7      40    98.7      60    98.7      60   108.7
     100   108.7
#Mann= 3 , 0 , 0 
       0     .02       0      40     .02       0      60     .02       0
Bank Sta=40,60
XS Rating Curve= 0 ,0
XS HTab Starting El and Incr=98.7,0.1, 100 
Exp/Cntr=0.3,0.1

Type RM Length L Ch R = 1 ,28600.* ,100,100,100
Node Last Edited Time=Sep/25/2012 13:09:43
#Sta/Elev= 6 
       0   108.6      40   108.6      40    98.6      60    98.6      60   108.6
     100   108.6
#Mann= 3 , 0 , 0 
       0     .02       0      40     .02       0      60     .02       0
Bank Sta=40,60
XS Rating Curve= 0 ,0
XS HTab Starting El and Incr=98.6,0.1, 100 
Exp/Cntr=0.3,0.1

Type RM Length L Ch R = 1 ,28500.* ,100,100,100
Node Last Edited Time=Sep/25/2012 13:09:43
#Sta/Elev= 6 
       0   108.5      40   108.5      40    98.5      60    98.5      60   108.5
     100   108.5
#Mann= 3 , 0 , 0 
       0     .02       0      40     .02       0      60     .02       0
Bank Sta=40,60
XS Rating Curve= 0 ,0
XS HTab Starting El and Incr=98.5,0.1, 100 
Exp/Cntr=0.3,0.1

Type RM Length L Ch R = 1 ,28400.* ,100,100,100
Node Last Edited Time=Sep/25/2012 13:09:43
#Sta/Elev= 6 
       0   108.4      40   108.4      40    98.4      60    98.4      60   108.4
     100   108.4
#Mann= 3 , 0 , 0 
       0     .02       0      40     .02       0      60     .02       0
Bank Sta=40,60
XS Rating Curve= 0 ,0
XS HTab Starting El and Incr=98.4,0.1, 100 
Exp/Cntr=0.3,0.1

Type RM Length L Ch R = 1 ,28300.* ,100,100,100
Node Last Edited Time=Sep/25/2012 13:09:43
#Sta/Elev= 6 
       0   108.3      40   108.3      40    98.3      60    98.3      60   108.3
     100   108.3
#Mann= 3 , 0 , 0 
       0     .02       0      40     .02       0      60     .02       0
Bank Sta=40,60
XS Rating Curve= 0 ,0
XS HTab Starting El and Incr=98.3,0.1, 100 
Exp/Cntr=0.3,0.1

Type RM Length L Ch R = 1 ,28200.* ,100,100,100
Node Last Edited Time=Sep/25/2012 13:09:43
#Sta/Elev= 6 
       0   108.2      40   108.2      40    98.2      60    98.2      60   108.2
     100   108.2
#Mann= 3 , 0 , 0 
       0     .02       0      40     .02       0      60     .02       0
Bank Sta=40,60
XS Rating Curve= 0 ,0
XS HTab Starting El and Incr=98.2,0.1, 100 
Exp/Cntr=0.3,0.1

Type RM Length L Ch R = 1 ,28100.* ,100,100,100
Node Last Edited Time=Sep/25/2012 13:09:43
#Sta/Elev= 6 
       0   108.1      40   108.1      40    98.1      60    98.1      60   108.1
     100   108.1
#Mann= 3 , 0 , 0 
       0     .02       0      40     .02       0      60     .02       0
Bank Sta=40,60
XS Rating Curve= 0 ,0
XS HTab Starting El and Incr=98.1,0.1, 100 
Exp/Cntr=0.3,0.1

Type RM Length L Ch R = 1 ,28000.* ,100,100,100
Node Last Edited Time=Sep/25/2012 13:09:43
#Sta/Elev= 6 
       0     108      40     108      40      98      60      98      60     108
     100     108
#Mann= 3 , 0 , 0 
       0     .02       0      40     .02       0      60     .02       0
Bank Sta=40,60
XS Rating Curve= 0 ,0
XS HTab Starting El and Incr=98,0.1, 100 
Exp/Cntr=0.3,0.1

Type RM Length L Ch R = 1 ,27900.* ,100,100,100
Node Last Edited Time=Sep/25/2012 13:09:43
#Sta/Elev= 6 
       0   107.9      40   107.9      40    97.9      60    97.9      60   107.9
     100   107.9
#Mann= 3 , 0 , 0 
       0     .02       0      40     .02       0      60     .02       0
Bank Sta=40,60
XS Rating Curve= 0 ,0
XS HTab Starting El and Incr=97.9,0.1, 100 
Exp/Cntr=0.3,0.1

Type RM Length L Ch R = 1 ,27800.* ,100,100,100
Node Last Edited Time=Sep/25/2012 13:09:43
#Sta/Elev= 6 
       0   107.8      40   107.8      40    97.8      60    97.8      60   107.8
     100   107.8
#Mann= 3 , 0 , 0 
       0     .02       0      40     .02       0      60     .02       0
Bank Sta=40,60
XS Rating Curve= 0 ,0
XS HTab Starting El and Incr=97.8,0.1, 100 
Exp/Cntr=0.3,0.1

Type RM Length L Ch R = 1 ,27700.* ,100,100,100
Node Last Edited Time=Sep/25/2012 13:09:43
#Sta/Elev= 6 
       0   107.7      40   107.7      40    97.7      60    97.7      60   107.7
     100   107.7
#Mann= 3 , 0 , 0 
       0     .02       0      40     .02       0      60     .02       0
Bank Sta=40,60
XS Rating Curve= 0 ,0
XS HTab Starting El and Incr=97.7,0.1, 100 
Exp/Cntr=0.3,0.1

Type RM Length L Ch R = 1 ,27600.* ,100,100,100
Node Last Edited Time=Sep/25/2012 13:09:43
#Sta/Elev= 6 
       0   107.6      40   107.6      40    97.6      60    97.6      60   107.6
     100   107.6
#Mann= 3 , 0 , 0 
       0     .02       0      40     .02       0      60     .02       0
Bank Sta=40,60
XS Rating Curve= 0 ,0
XS HTab Starting El and Incr=97.6,0.1, 100 
Exp/Cntr=0.3,0.1

Type RM Length L Ch R = 1 ,27500.* ,100,100,100
Node Last Edited Time=Sep/25/2012 13:09:43
#Sta/Elev= 6 
       0   107.5      40   107.5      40    97.5      60    97.5      60   107.5
     100   107.5
#Mann= 3 , 0 , 0 
       0     .02       0      40     .02       0      60     .02       0
Bank Sta=40,60
XS Rating Curve= 0 ,0
XS HTab Starting El and Incr=97.5,0.1, 100 
Exp/Cntr=0.3,0.1

Type RM Length L Ch R = 1 ,27400.* ,100,100,100
Node Last Edited Time=Sep/25/2012 13:09:43
#Sta/Elev= 6 
       0   107.4      40   107.4      40    97.4      60    97.4      60   107.4
     100   107.4
#Mann= 3 , 0 , 0 
       0     .02       0      40     .02       0      60     .02       0
Bank Sta=40,60
XS Rating Curve= 0 ,0
XS HTab Starting El and Incr=97.4,0.1, 100 
Exp/Cntr=0.3,0.1

Type RM Length L Ch R = 1 ,27300.* ,100,100,100
Node Last Edited Time=Sep/25/2012 13:09:43
#Sta/Elev= 6 
       0   107.3      40   107.3      40    97.3      60    97.3      60   107.3
     100   107.3
#Mann= 3 , 0 , 0 
       0     .02       0      40     .02       0      60     .02       0
Bank Sta=40,60
XS Rating Curve= 0 ,0
XS HTab Starting El and Incr=97.3,0.1, 100 
Exp/Cntr=0.3,0.1

Type RM Length L Ch R = 1 ,27200.* ,100,100,100
Node Last Edited Time=Sep/25/2012 13:09:43
#Sta/Elev= 6 
       0   107.2      40   107.2      40    97.2      60    97.2      60   107.2
     100   107.2
#Mann= 3 , 0 , 0 
       0     .02       0      40     .02       0      60     .02       0
Bank Sta=40,60
XS Rating Curve= 0 ,0
XS HTab Starting El and Incr=97.2,0.1, 100 
Exp/Cntr=0.3,0.1

Type RM Length L Ch R = 1 ,27100.* ,100,100,100
Node Last Edited Time=Sep/25/2012 13:09:43
#Sta/Elev= 6 
       0   107.1      40   107.1      40    97.1      60    97.1      60   107.1
     100   107.1
#Mann= 3 , 0 , 0 
       0     .02       0      40     .02       0      60     .02       0
Bank Sta=40,60
XS Rating Curve= 0 ,0
XS HTab Starting El and Incr=97.1,0.1, 100 
Exp/Cntr=0.3,0.1

Type RM Length L Ch R = 1 ,27000.* ,100,100,100
Node Last Edited Time=Sep/25/2012 13:09:43
#Sta/Elev= 6 
       0     107      40     107      40      97      60      97      60     107
     100     107
#Mann= 3 , 0 , 0 
       0     .02       0      40     .02       0      60     .02       0
Bank Sta=40,60
XS Rating Curve= 0 ,0
XS HTab Starting El and Incr=97,0.1, 100 
Exp/Cntr=0.3,0.1

Type RM Length L Ch R = 1 ,26900.* ,100,100,100
Node Last Edited Time=Sep/25/2012 13:09:43
#Sta/Elev= 6 
       0   106.9      40   106.9      40    96.9      60    96.9      60   106.9
     100   106.9
#Mann= 3 , 0 , 0 
       0     .02       0      40     .02       0      60     .02       0
Bank Sta=40,60
XS Rating Curve= 0 ,0
XS HTab Starting El and Incr=96.9,0.1, 100 
Exp/Cntr=0.3,0.1

Type RM Length L Ch R = 1 ,26800.* ,100,100,100
Node Last Edited Time=Sep/25/2012 13:09:43
#Sta/Elev= 6 
       0   106.8      40   106.8      40    96.8      60    96.8      60   106.8
     100   106.8
#Mann= 3 , 0 , 0 
       0     .02       0      40     .02       0      60     .02       0
Bank Sta=40,60
XS Rating Curve= 0 ,0
XS HTab Starting El and Incr=96.8,0.1, 100 
Exp/Cntr=0.3,0.1

Type RM Length L Ch R = 1 ,26700.* ,100,100,100
Node Last Edited Time=Sep/25/2012 13:09:43
#Sta/Elev= 6 
       0   106.7      40   106.7      40    96.7      60    96.7      60   106.7
     100   106.7
#Mann= 3 , 0 , 0 
       0     .02       0      40     .02       0      60     .02       0
Bank Sta=40,60
XS Rating Curve= 0 ,0
XS HTab Starting El and Incr=96.7,0.1, 100 
Exp/Cntr=0.3,0.1

Type RM Length L Ch R = 1 ,26600.* ,100,100,100
Node Last Edited Time=Sep/25/2012 13:09:43
#Sta/Elev= 6 
       0   106.6      40   106.6      40    96.6      60    96.6      60   106.6
     100   106.6
#Mann= 3 , 0 , 0 
       0     .02       0      40     .02       0      60     .02       0
Bank Sta=40,60
XS Rating Curve= 0 ,0
XS HTab Starting El and Incr=96.6,0.1, 100 
Exp/Cntr=0.3,0.1

Type RM Length L Ch R = 1 ,26500.* ,100,100,100
Node Last Edited Time=Sep/25/2012 13:09:43
#Sta/Elev= 6 
       0   106.5      40   106.5      40    96.5      60    96.5      60   106.5
     100   106.5
#Mann= 3 , 0 , 0 
       0     .02       0      40     .02       0      60     .02       0
Bank Sta=40,60
XS Rating Curve= 0 ,0
XS HTab Starting El and Incr=96.5,0.1, 100 
Exp/Cntr=0.3,0.1

Type RM Length L Ch R = 1 ,26400.* ,100,100,100
Node Last Edited Time=Sep/25/2012 13:09:43
#Sta/Elev= 6 
       0   106.4      40   106.4      40    96.4      60    96.4      60   106.4
     100   106.4
#Mann= 3 , 0 , 0 
       0     .02       0      40     .02       0      60     .02       0
Bank Sta=40,60
XS Rating Curve= 0 ,0
XS HTab Starting El and Incr=96.4,0.1, 100 
Exp/Cntr=0.3,0.1

Type RM Length L Ch R = 1 ,26300.* ,100,100,100
Node Last Edited Time=Sep/25/2012 13:09:43
#Sta/Elev= 6 
       0   106.3      40   106.3      40    96.3      60    96.3      60   106.3
     100   106.3
#Mann= 3 , 0 , 0 
       0     .02       0      40     .02       0      60     .02       0
Bank Sta=40,60
XS Rating Curve= 0 ,0
XS HTab Starting El and Incr=96.3,0.1, 100 
Exp/Cntr=0.3,0.1

Type RM Length L Ch R = 1 ,26200.* ,100,100,100
Node Last Edited Time=Sep/25/2012 13:09:43
#Sta/Elev= 6 
       0   106.2      40   106.2      40    96.2      60    96.2      60   106.2
     100   106.2
#Mann= 3 , 0 , 0 
       0     .02       0      40     .02       0      60     .02       0
Bank Sta=40,60
XS Rating Curve= 0 ,0
XS HTab Starting El and Incr=96.2,0.1, 100 
Exp/Cntr=0.3,0.1

Type RM Length L Ch R = 1 ,26100.* ,100,100,100
Node Last Edited Time=Sep/25/2012 13:09:43
#Sta/Elev= 6 
       0   106.1      40   106.1      40    96.1      60    96.1      60   106.1
     100   106.1
#Mann= 3 , 0 , 0 
       0     .02       0      40     .02       0      60     .02       0
Bank Sta=40,60
XS Rating Curve= 0 ,0
XS HTab Starting El and Incr=96.1,0.1, 100 
Exp/Cntr=0.3,0.1

Type RM Length L Ch R = 1 ,26000.* ,100,100,100
Node Last Edited Time=Sep/25/2012 13:09:43
#Sta/Elev= 6 
       0     106      40     106      40      96      60      96      60     106
     100     106
#Mann= 3 , 0 , 0 
       0     .02       0      40     .02       0      60     .02       0
Bank Sta=40,60
XS Rating Curve= 0 ,0
XS HTab Starting El and Incr=96,0.1, 100 
Exp/Cntr=0.3,0.1

Type RM Length L Ch R = 1 ,25900.* ,100,100,100
Node Last Edited Time=Sep/25/2012 13:09:43
#Sta/Elev= 6 
       0   105.9      40   105.9      40    95.9      60    95.9      60   105.9
     100   105.9
#Mann= 3 , 0 , 0 
       0     .02       0      40     .02       0      60     .02       0
Bank Sta=40,60
XS Rating Curve= 0 ,0
XS HTab Starting El and Incr=95.9,0.1, 100 
Exp/Cntr=0.3,0.1

Type RM Length L Ch R = 1 ,25800.* ,100,100,100
Node Last Edited Time=Sep/25/2012 13:09:43
#Sta/Elev= 6 
       0   105.8      40   105.8      40    95.8      60    95.8      60   105.8
     100   105.8
#Mann= 3 , 0 , 0 
       0     .02       0      40     .02       0      60     .02       0
Bank Sta=40,60
XS Rating Curve= 0 ,0
XS HTab Starting El and Incr=95.8,0.1, 100 
Exp/Cntr=0.3,0.1

Type RM Length L Ch R = 1 ,25700.* ,100,100,100
Node Last Edited Time=Sep/25/2012 13:09:43
#Sta/Elev= 6 
       0   105.7      40   105.7      40    95.7      60    95.7      60   105.7
     100   105.7
#Mann= 3 , 0 , 0 
       0     .02       0      40     .02       0      60     .02       0
Bank Sta=40,60
XS Rating Curve= 0 ,0
XS HTab Starting El and Incr=95.7,0.1, 100 
Exp/Cntr=0.3,0.1

Type RM Length L Ch R = 1 ,25600.* ,100,100,100
Node Last Edited Time=Sep/25/2012 13:09:43
#Sta/Elev= 6 
       0   105.6      40   105.6      40    95.6      60    95.6      60   105.6
     100   105.6
#Mann= 3 , 0 , 0 
       0     .02       0      40     .02       0      60     .02       0
Bank Sta=40,60
XS Rating Curve= 0 ,0
XS HTab Starting El and Incr=95.6,0.1, 100 
Exp/Cntr=0.3,0.1

Type RM Length L Ch R = 1 ,25500.* ,100,100,100
Node Last Edited Time=Sep/25/2012 13:09:43
#Sta/Elev= 6 
       0   105.5      40   105.5      40    95.5      60    95.5      60   105.5
     100   105.5
#Mann= 3 , 0 , 0 
       0     .02       0      40     .02       0      60     .02       0
Bank Sta=40,60
XS Rating Curve= 0 ,0
XS HTab Starting El and Incr=95.5,0.1, 100 
Exp/Cntr=0.3,0.1

Type RM Length L Ch R = 1 ,25400.* ,100,100,100
Node Last Edited Time=Sep/25/2012 13:09:43
#Sta/Elev= 6 
       0   105.4      40   105.4      40    95.4      60    95.4      60   105.4
     100   105.4
#Mann= 3 , 0 , 0 
       0     .02       0      40     .02       0      60     .02       0
Bank Sta=40,60
XS Rating Curve= 0 ,0
XS HTab Starting El and Incr=95.4,0.1, 100 
Exp/Cntr=0.3,0.1

Type RM Length L Ch R = 1 ,25300.* ,100,100,100
Node Last Edited Time=Sep/25/2012 13:09:43
#Sta/Elev= 6 
       0   105.3      40   105.3      40    95.3      60    95.3      60   105.3
     100   105.3
#Mann= 3 , 0 , 0 
       0     .02       0      40     .02       0      60     .02       0
Bank Sta=40,60
XS Rating Curve= 0 ,0
XS HTab Starting El and Incr=95.3,0.1, 100 
Exp/Cntr=0.3,0.1

Type RM Length L Ch R = 1 ,25200.* ,100,100,100
Node Last Edited Time=Sep/25/2012 13:09:43
#Sta/Elev= 6 
       0   105.2      40   105.2      40    95.2      60    95.2      60   105.2
     100   105.2
#Mann= 3 , 0 , 0 
       0     .02       0      40     .02       0      60     .02       0
Bank Sta=40,60
XS Rating Curve= 0 ,0
XS HTab Starting El and Incr=95.2,0.1, 100 
Exp/Cntr=0.3,0.1

Type RM Length L Ch R = 1 ,25100.* ,100,100,100
Node Last Edited Time=Sep/25/2012 13:09:43
#Sta/Elev= 6 
       0   105.1      40   105.1      40    95.1      60    95.1      60   105.1
     100   105.1
#Mann= 3 , 0 , 0 
       0     .02       0      40     .02       0      60     .02       0
Bank Sta=40,60
XS Rating Curve= 0 ,0
XS HTab Starting El and Incr=95.1,0.1, 100 
Exp/Cntr=0.3,0.1

Type RM Length L Ch R = 1 ,25000.* ,100,100,100
Node Last Edited Time=Sep/25/2012 13:09:43
#Sta/Elev= 6 
       0     105      40     105      40      95      60      95      60     105
     100     105
#Mann= 3 , 0 , 0 
       0     .02       0      40     .02       0      60     .02       0
Bank Sta=40,60
XS Rating Curve= 0 ,0
XS HTab Starting El and Incr=95,0.1, 100 
Exp/Cntr=0.3,0.1

Type RM Length L Ch R = 1 ,24900.* ,100,100,100
Node Last Edited Time=Sep/25/2012 13:09:43
#Sta/Elev= 6 
       0   104.9      40   104.9      40    94.9      60    94.9      60   104.9
     100   104.9
#Mann= 3 , 0 , 0 
       0     .02       0      40     .02       0      60     .02       0
Bank Sta=40,60
XS Rating Curve= 0 ,0
XS HTab Starting El and Incr=94.9,0.1, 100 
Exp/Cntr=0.3,0.1

Type RM Length L Ch R = 1 ,24800.* ,100,100,100
Node Last Edited Time=Sep/25/2012 13:09:43
#Sta/Elev= 6 
       0   104.8      40   104.8      40    94.8      60    94.8      60   104.8
     100   104.8
#Mann= 3 , 0 , 0 
       0     .02       0      40     .02       0      60     .02       0
Bank Sta=40,60
XS Rating Curve= 0 ,0
XS HTab Starting El and Incr=94.8,0.1, 100 
Exp/Cntr=0.3,0.1

Type RM Length L Ch R = 1 ,24700.* ,100,100,100
Node Last Edited Time=Sep/25/2012 13:09:43
#Sta/Elev= 6 
       0   104.7      40   104.7      40    94.7      60    94.7      60   104.7
     100   104.7
#Mann= 3 , 0 , 0 
       0     .02       0      40     .02       0      60     .02       0
Bank Sta=40,60
XS Rating Curve= 0 ,0
XS HTab Starting El and Incr=94.7,0.1, 100 
Exp/Cntr=0.3,0.1

Type RM Length L Ch R = 1 ,24600.* ,100,100,100
Node Last Edited Time=Sep/25/2012 13:09:43
#Sta/Elev= 6 
       0   104.6      40   104.6      40    94.6      60    94.6      60   104.6
     100   104.6
#Mann= 3 , 0 , 0 
       0     .02       0      40     .02       0      60     .02       0
Bank Sta=40,60
XS Rating Curve= 0 ,0
XS HTab Starting El and Incr=94.6,0.1, 100 
Exp/Cntr=0.3,0.1

Type RM Length L Ch R = 1 ,24500.* ,100,100,100
Node Last Edited Time=Sep/25/2012 13:09:43
#Sta/Elev= 6 
       0   104.5      40   104.5      40    94.5      60    94.5      60   104.5
     100   104.5
#Mann= 3 , 0 , 0 
       0     .02       0      40     .02       0      60     .02       0
Bank Sta=40,60
XS Rating Curve= 0 ,0
XS HTab Starting El and Incr=94.5,0.1, 100 
Exp/Cntr=0.3,0.1

Type RM Length L Ch R = 1 ,24400.* ,100,100,100
Node Last Edited Time=Sep/25/2012 13:09:43
#Sta/Elev= 6 
       0   104.4      40   104.4      40    94.4      60    94.4      60   104.4
     100   104.4
#Mann= 3 , 0 , 0 
       0     .02       0      40     .02       0      60     .02       0
Bank Sta=40,60
XS Rating Curve= 0 ,0
XS HTab Starting El and Incr=94.4,0.1, 100 
Exp/Cntr=0.3,0.1

Type RM Length L Ch R = 1 ,24300.* ,100,100,100
Node Last Edited Time=Sep/25/2012 13:09:43
#Sta/Elev= 6 
       0   104.3      40   104.3      40    94.3      60    94.3      60   104.3
     100   104.3
#Mann= 3 , 0 , 0 
       0     .02       0      40     .02       0      60     .02       0
Bank Sta=40,60
XS Rating Curve= 0 ,0
XS HTab Starting El and Incr=94.3,0.1, 100 
Exp/Cntr=0.3,0.1

Type RM Length L Ch R = 1 ,24200.* ,100,100,100
Node Last Edited Time=Sep/25/2012 13:09:43
#Sta/Elev= 6 
       0   104.2      40   104.2      40    94.2      60    94.2      60   104.2
     100   104.2
#Mann= 3 , 0 , 0 
       0     .02       0      40     .02       0      60     .02       0
Bank Sta=40,60
XS Rating Curve= 0 ,0
XS HTab Starting El and Incr=94.2,0.1, 100 
Exp/Cntr=0.3,0.1

Type RM Length L Ch R = 1 ,24100.* ,100,100,100
Node Last Edited Time=Sep/25/2012 13:09:43
#Sta/Elev= 6 
       0   104.1      40   104.1      40    94.1      60    94.1      60   104.1
     100   104.1
#Mann= 3 , 0 , 0 
       0     .02       0      40     .02       0      60     .02       0
Bank Sta=40,60
XS Rating Curve= 0 ,0
XS HTab Starting El and Incr=94.1,0.1, 100 
Exp/Cntr=0.3,0.1

Type RM Length L Ch R = 1 ,24000.* ,100,100,100
Node Last Edited Time=Sep/25/2012 13:09:43
#Sta/Elev= 6 
       0     104      40     104      40      94      60      94      60     104
     100     104
#Mann= 3 , 0 , 0 
       0     .02       0      40     .02       0      60     .02       0
Bank Sta=40,60
XS Rating Curve= 0 ,0
XS HTab Starting El and Incr=94,0.1, 100 
Exp/Cntr=0.3,0.1

Type RM Length L Ch R = 1 ,23900.* ,100,100,100
Node Last Edited Time=Sep/25/2012 13:09:43
#Sta/Elev= 6 
       0   103.9      40   103.9      40    93.9      60    93.9      60   103.9
     100   103.9
#Mann= 3 , 0 , 0 
       0     .02       0      40     .02       0      60     .02       0
Bank Sta=40,60
XS Rating Curve= 0 ,0
XS HTab Starting El and Incr=93.9,0.1, 100 
Exp/Cntr=0.3,0.1

Type RM Length L Ch R = 1 ,23800.* ,100,100,100
Node Last Edited Time=Sep/25/2012 13:09:43
#Sta/Elev= 6 
       0   103.8      40   103.8      40    93.8      60    93.8      60   103.8
     100   103.8
#Mann= 3 , 0 , 0 
       0     .02       0      40     .02       0      60     .02       0
Bank Sta=40,60
XS Rating Curve= 0 ,0
XS HTab Starting El and Incr=93.8,0.1, 100 
Exp/Cntr=0.3,0.1

Type RM Length L Ch R = 1 ,23700.* ,100,100,100
Node Last Edited Time=Sep/25/2012 13:09:43
#Sta/Elev= 6 
       0   103.7      40   103.7      40    93.7      60    93.7      60   103.7
     100   103.7
#Mann= 3 , 0 , 0 
       0     .02       0      40     .02       0      60     .02       0
Bank Sta=40,60
XS Rating Curve= 0 ,0
XS HTab Starting El and Incr=93.7,0.1, 100 
Exp/Cntr=0.3,0.1

Type RM Length L Ch R = 1 ,23600.* ,100,100,100
Node Last Edited Time=Sep/25/2012 13:09:43
#Sta/Elev= 6 
       0   103.6      40   103.6      40    93.6      60    93.6      60   103.6
     100   103.6
#Mann= 3 , 0 , 0 
       0     .02       0      40     .02       0      60     .02       0
Bank Sta=40,60
XS Rating Curve= 0 ,0
XS HTab Starting El and Incr=93.6,0.1, 100 
Exp/Cntr=0.3,0.1

Type RM Length L Ch R = 1 ,23500.* ,100,100,100
Node Last Edited Time=Sep/25/2012 13:09:43
#Sta/Elev= 6 
       0   103.5      40   103.5      40    93.5      60    93.5      60   103.5
     100   103.5
#Mann= 3 , 0 , 0 
       0     .02       0      40     .02       0      60     .02       0
Bank Sta=40,60
XS Rating Curve= 0 ,0
XS HTab Starting El and Incr=93.5,0.1, 100 
Exp/Cntr=0.3,0.1

Type RM Length L Ch R = 1 ,23400.* ,100,100,100
Node Last Edited Time=Sep/25/2012 13:09:43
#Sta/Elev= 6 
       0   103.4      40   103.4      40    93.4      60    93.4      60   103.4
     100   103.4
#Mann= 3 , 0 , 0 
       0     .02       0      40     .02       0      60     .02       0
Bank Sta=40,60
XS Rating Curve= 0 ,0
XS HTab Starting El and Incr=93.4,0.1, 100 
Exp/Cntr=0.3,0.1

Type RM Length L Ch R = 1 ,23300.* ,100,100,100
Node Last Edited Time=Sep/25/2012 13:09:43
#Sta/Elev= 6 
       0   103.3      40   103.3      40    93.3      60    93.3      60   103.3
     100   103.3
#Mann= 3 , 0 , 0 
       0     .02       0      40     .02       0      60     .02       0
Bank Sta=40,60
XS Rating Curve= 0 ,0
XS HTab Starting El and Incr=93.3,0.1, 100 
Exp/Cntr=0.3,0.1

Type RM Length L Ch R = 1 ,23200.* ,100,100,100
Node Last Edited Time=Sep/25/2012 13:09:43
#Sta/Elev= 6 
       0   103.2      40   103.2      40    93.2      60    93.2      60   103.2
     100   103.2
#Mann= 3 , 0 , 0 
       0     .02       0      40     .02       0      60     .02       0
Bank Sta=40,60
XS Rating Curve= 0 ,0
XS HTab Starting El and Incr=93.2,0.1, 100 
Exp/Cntr=0.3,0.1

Type RM Length L Ch R = 1 ,23100.* ,100,100,100
Node Last Edited Time=Sep/25/2012 13:09:43
#Sta/Elev= 6 
       0   103.1      40   103.1      40    93.1      60    93.1      60   103.1
     100   103.1
#Mann= 3 , 0 , 0 
       0     .02       0      40     .02       0      60     .02       0
Bank Sta=40,60
XS Rating Curve= 0 ,0
XS HTab Starting El and Incr=93.1,0.1, 100 
Exp/Cntr=0.3,0.1

Type RM Length L Ch R = 1 ,23000.* ,100,100,100
Node Last Edited Time=Sep/25/2012 13:09:43
#Sta/Elev= 6 
       0     103      40     103      40      93      60      93      60     103
     100     103
#Mann= 3 , 0 , 0 
       0     .02       0      40     .02       0      60     .02       0
Bank Sta=40,60
XS Rating Curve= 0 ,0
XS HTab Starting El and Incr=93,0.1, 100 
Exp/Cntr=0.3,0.1

Type RM Length L Ch R = 1 ,22900.* ,100,100,100
Node Last Edited Time=Sep/25/2012 13:09:43
#Sta/Elev= 6 
       0   102.9      40   102.9      40    92.9      60    92.9      60   102.9
     100   102.9
#Mann= 3 , 0 , 0 
       0     .02       0      40     .02       0      60     .02       0
Bank Sta=40,60
XS Rating Curve= 0 ,0
XS HTab Starting El and Incr=92.9,0.1, 100 
Exp/Cntr=0.3,0.1

Type RM Length L Ch R = 1 ,22800.* ,100,100,100
Node Last Edited Time=Sep/25/2012 13:09:43
#Sta/Elev= 6 
       0   102.8      40   102.8      40    92.8      60    92.8      60   102.8
     100   102.8
#Mann= 3 , 0 , 0 
       0     .02       0      40     .02       0      60     .02       0
Bank Sta=40,60
XS Rating Curve= 0 ,0
XS HTab Starting El and Incr=92.8,0.1, 100 
Exp/Cntr=0.3,0.1

Type RM Length L Ch R = 1 ,22700.* ,100,100,100
Node Last Edited Time=Sep/25/2012 13:09:43
#Sta/Elev= 6 
       0   102.7      40   102.7      40    92.7      60    92.7      60   102.7
     100   102.7
#Mann= 3 , 0 , 0 
       0     .02       0      40     .02       0      60     .02       0
Bank Sta=40,60
XS Rating Curve= 0 ,0
XS HTab Starting El and Incr=92.7,0.1, 100 
Exp/Cntr=0.3,0.1

Type RM Length L Ch R = 1 ,22600.* ,100,100,100
Node Last Edited Time=Sep/25/2012 13:09:43
#Sta/Elev= 6 
       0   102.6      40   102.6      40    92.6      60    92.6      60   102.6
     100   102.6
#Mann= 3 , 0 , 0 
       0     .02       0      40     .02       0      60     .02       0
Bank Sta=40,60
XS Rating Curve= 0 ,0
XS HTab Starting El and Incr=92.6,0.1, 100 
Exp/Cntr=0.3,0.1

Type RM Length L Ch R = 1 ,22500.* ,100,100,100
Node Last Edited Time=Sep/25/2012 13:09:43
#Sta/Elev= 6 
       0   102.5      40   102.5      40    92.5      60    92.5      60   102.5
     100   102.5
#Mann= 3 , 0 , 0 