Flow Title=SS uber
Program Version=4.10
Number of Profiles= 1 
Profile Names=PF 1
River Rch & RM=test,test            ,30000   
     400
Boundary for River Rch & Prof#=test,test            , 1 
Up Type= 3 
Up Slope=0.001
Dn Type= 3 
Dn Slope=0.001
DSS Import StartDate=
DSS Import StartTime=
DSS Import EndDate=
DSS Import EndTime=
DSS Import GetInterval= 0 
DSS Import Interval=
DSS Import GetPeak= 0 
DSS Import FillOption= 0 
