Geom Title=Geom_orifice
Program Version=4.10
Viewing Rectangle= 0 , 1 , 1 , 0 

River Reach=test            ,test            
Reach XY= 2 
-0.06527249683140.55766793409379 0.97021546261090.55766793409379
Rch Text X Y=0.1935995,0.5576679
Reverse River Text= 0 

Type RM Length L Ch R = 1 ,99750   ,500,500,500
Node Last Edited Time=Sep/04/2012 12:12:44
#Sta/Elev= 6 
    -200   99.82       0   99.82       0  95.463     100  95.463     100   99.82
     300   99.82
#Mann= 3 , 0 , 0 
    -200     .04       0       0     .04       0     100     .04       0
Bank Sta=0,100
XS Rating Curve= 0 ,0
XS HTab Starting El and Incr=95.613,0.15, 100 
Exp/Cntr=0.3,0.1

Type RM Length L Ch R = 1 ,99250.* ,500,500,500
Node Last Edited Time=Sep/04/2012 12:17:54
#Sta/Elev= 6 
    -200   99.52       0   99.52       0  95.163     100  95.163     100   99.52
     300   99.52
#Mann= 3 , 0 , 0 
    -200     .04       0       0     .04       0     100     .04       0
Bank Sta=0,100
XS Rating Curve= 0 ,0
XS HTab Starting El and Incr=95.313,0.15, 100 
Exp/Cntr=0.3,0.1

Type RM Length L Ch R = 1 ,98750.* ,500,500,500
Node Last Edited Time=Sep/04/2012 12:17:54
#Sta/Elev= 6 
    -200   99.22       0   99.22       0  94.863     100  94.863     100   99.22
     300   99.22
#Mann= 3 , 0 , 0 
    -200     .04       0       0     .04       0     100     .04       0
Bank Sta=0,100
XS Rating Curve= 0 ,0
XS HTab Starting El and Incr=95.013,0.15, 100 
Exp/Cntr=0.3,0.1

Type RM Length L Ch R = 1 ,98250.* ,500,500,500
Node Last Edited Time=Sep/04/2012 12:17:54
#Sta/Elev= 6 
    -200   98.92       0   98.92       0  94.563     100  94.563     100   98.92
     300   98.92
#Mann= 3 , 0 , 0 
    -200     .04       0       0     .04       0     100     .04       0
Bank Sta=0,100
XS Rating Curve= 0 ,0
XS HTab Starting El and Incr=94.71301,0.15, 100 
Exp/Cntr=0.3,0.1

Type RM Length L Ch R = 1 ,97750.* ,500,500,500
Node Last Edited Time=Sep/04/2012 12:17:54
#Sta/Elev= 6 
    -200   98.62       0   98.62       0  94.263     100  94.263     100   98.62
     300   98.62
#Mann= 3 , 0 , 0 
    -200     .04       0       0     .04       0     100     .04       0
Bank Sta=0,100
XS Rating Curve= 0 ,0
XS HTab Starting El and Incr=94.413,0.15, 100 
Exp/Cntr=0.3,0.1

Type RM Length L Ch R = 1 ,97250.* ,500,500,500
Node Last Edited Time=Sep/04/2012 12:17:54
#Sta/Elev= 6 
    -200   98.32       0   98.32       0  93.963     100  93.963     100   98.32
     300   98.32
#Mann= 3 , 0 , 0 
    -200     .04       0       0     .04       0     100     .04       0
Bank Sta=0,100
XS Rating Curve= 0 ,0
XS HTab Starting El and Incr=94.113,0.15, 100 
Exp/Cntr=0.3,0.1

Type RM Length L Ch R = 1 ,96750.* ,500,500,500
Node Last Edited Time=Sep/04/2012 12:17:54
#Sta/Elev= 6 
    -200   98.02       0   98.02       0  93.663     100  93.663     100   98.02
     300   98.02
#Mann= 3 , 0 , 0 
    -200     .04       0       0     .04       0     100     .04       0
Bank Sta=0,100
XS Rating Curve= 0 ,0
XS HTab Starting El and Incr=93.813,0.15, 100 
Exp/Cntr=0.3,0.1

Type RM Length L Ch R = 1 ,96250.* ,500,500,500
Node Last Edited Time=Sep/04/2012 12:17:54
#Sta/Elev= 6 
    -200   97.72       0   97.72       0  93.363     100  93.363     100   97.72
     300   97.72
#Mann= 3 , 0 , 0 
    -200     .04       0       0     .04       0     100     .04       0
Bank Sta=0,100
XS Rating Curve= 0 ,0
XS HTab Starting El and Incr=93.513,0.15, 100 
Exp/Cntr=0.3,0.1

Type RM Length L Ch R = 1 ,95750.* ,500,500,500
Node Last Edited Time=Sep/04/2012 12:17:54
#Sta/Elev= 6 
    -200   97.42       0   97.42       0  93.063     100  93.063     100   97.42
     300   97.42
#Mann= 3 , 0 , 0 
    -200     .04       0       0     .04       0     100     .04       0
Bank Sta=0,100
XS Rating Curve= 0 ,0
XS HTab Starting El and Incr=93.21301,0.15, 100 
Exp/Cntr=0.3,0.1

Type RM Length L Ch R = 1 ,95250.* ,500,500,500
Node Last Edited Time=Sep/04/2012 12:17:54
#Sta/Elev= 6 
    -200   97.12       0   97.12       0  92.763     100  92.763     100   97.12
     300   97.12
#Mann= 3 , 0 , 0 
    -200     .04       0       0     .04       0     100     .04       0
Bank Sta=0,100
XS Rating Curve= 0 ,0
XS HTab Starting El and Incr=92.913,0.15, 100 
Exp/Cntr=0.3,0.1

Type RM Length L Ch R = 1 ,94750.* ,500,500,500
Node Last Edited Time=Sep/04/2012 12:17:54
#Sta/Elev= 6 
    -200   96.82       0   96.82       0  92.463     100  92.463     100   96.82
     300   96.82
#Mann= 3 , 0 , 0 
    -200     .04       0       0     .04       0     100     .04       0
Bank Sta=0,100
XS Rating Curve= 0 ,0
XS HTab Starting El and Incr=92.613,0.15, 100 
Exp/Cntr=0.3,0.1

Type RM Length L Ch R = 1 ,94250.* ,500,500,500
Node Last Edited Time=Sep/04/2012 12:17:54
#Sta/Elev= 6 
    -200   96.52       0   96.52       0  92.163     100  92.163     100   96.52
     300   96.52
#Mann= 3 , 0 , 0 
    -200     .04       0       0     .04       0     100     .04       0
Bank Sta=0,100
XS Rating Curve= 0 ,0
XS HTab Starting El and Incr=92.313,0.15, 100 
Exp/Cntr=0.3,0.1

Type RM Length L Ch R = 1 ,93750.* ,500,500,500
Node Last Edited Time=Sep/04/2012 12:17:54
#Sta/Elev= 6 
    -200   96.22       0   96.22       0  91.863     100  91.863     100   96.22
     300   96.22
#Mann= 3 , 0 , 0 
    -200     .04       0       0     .04       0     100     .04       0
Bank Sta=0,100
XS Rating Curve= 0 ,0
XS HTab Starting El and Incr=92.013,0.15, 100 
Exp/Cntr=0.3,0.1

Type RM Length L Ch R = 1 ,93250.* ,500,500,500
Node Last Edited Time=Sep/04/2012 12:17:54
#Sta/Elev= 6 
    -200   95.92       0   95.92       0  91.563     100  91.563     100   95.92
     300   95.92
#Mann= 3 , 0 , 0 
    -200     .04       0       0     .04       0     100     .04       0
Bank Sta=0,100
XS Rating Curve= 0 ,0
XS HTab Starting El and Incr=91.71301,0.15, 100 
Exp/Cntr=0.3,0.1

Type RM Length L Ch R = 1 ,92750.* ,500,500,500
Node Last Edited Time=Sep/04/2012 12:17:54
#Sta/Elev= 6 
    -200   95.62       0   95.62       0  91.263     100  91.263     100   95.62
     300   95.62
#Mann= 3 , 0 , 0 
    -200     .04       0       0     .04       0     100     .04       0
Bank Sta=0,100
XS Rating Curve= 0 ,0
XS HTab Starting El and Incr=91.413,0.15, 100 
Exp/Cntr=0.3,0.1

Type RM Length L Ch R = 1 ,92250.* ,500,500,500
Node Last Edited Time=Sep/04/2012 12:17:54
#Sta/Elev= 6 
    -200   95.32       0   95.32       0  90.963     100  90.963     100   95.32
     300   95.32
#Mann= 3 , 0 , 0 
    -200     .04       0       0     .04       0     100     .04       0
Bank Sta=0,100
XS Rating Curve= 0 ,0
XS HTab Starting El and Incr=91.113,0.15, 100 
Exp/Cntr=0.3,0.1

Type RM Length L Ch R = 1 ,91750.* ,500,500,500
Node Last Edited Time=Sep/04/2012 12:17:54
#Sta/Elev= 6 
    -200   95.02       0   95.02       0  90.663     100  90.663     100   95.02
     300   95.02
#Mann= 3 , 0 , 0 
    -200     .04       0       0     .04       0     100     .04       0
Bank Sta=0,100
XS Rating Curve= 0 ,0
XS HTab Starting El and Incr=90.813,0.15, 100 
Exp/Cntr=0.3,0.1

Type RM Length L Ch R = 1 ,91250.* ,500,500,500
Node Last Edited Time=Sep/04/2012 12:17:54
#Sta/Elev= 6 
    -200   94.72       0   94.72       0  90.363     100  90.363     100   94.72
     300   94.72
#Mann= 3 , 0 , 0 
    -200     .04       0       0     .04       0     100     .04       0
Bank Sta=0,100
XS Rating Curve= 0 ,0
XS HTab Starting El and Incr=90.513,0.15, 100 
Exp/Cntr=0.3,0.1

Type RM Length L Ch R = 1 ,90750.* ,500,500,500
Node Last Edited Time=Sep/04/2012 12:17:54
#Sta/Elev= 6 
    -200   94.42       0   94.42       0  90.063     100  90.063     100   94.42
     300   94.42
#Mann= 3 , 0 , 0 
    -200     .04       0       0     .04       0     100     .04       0
Bank Sta=0,100
XS Rating Curve= 0 ,0
XS HTab Starting El and Incr=90.21301,0.15, 100 
Exp/Cntr=0.3,0.1

Type RM Length L Ch R = 1 ,90250.* ,500,500,500
Node Last Edited Time=Sep/04/2012 12:17:54
#Sta/Elev= 6 
    -200   94.12       0   94.12       0  89.763     100  89.763     100   94.12
     300   94.12
#Mann= 3 , 0 , 0 
    -200     .04       0       0     .04       0     100     .04       0
Bank Sta=0,100
XS Rating Curve= 0 ,0
XS HTab Starting El and Incr=89.913,0.15, 100 
Exp/Cntr=0.3,0.1

Type RM Length L Ch R = 1 ,89750.* ,500,500,500
Node Last Edited Time=Sep/04/2012 12:17:54
#Sta/Elev= 6 
    -200   93.82       0   93.82       0  89.463     100  89.463     100   93.82
     300   93.82
#Mann= 3 , 0 , 0 
    -200     .04       0       0     .04       0     100     .04       0
Bank Sta=0,100
XS Rating Curve= 0 ,0
XS HTab Starting El and Incr=89.613,0.15, 100 
Exp/Cntr=0.3,0.1

Type RM Length L Ch R = 1 ,89250.* ,500,500,500
Node Last Edited Time=Sep/04/2012 12:17:54
#Sta/Elev= 6 
    -200   93.52       0   93.52       0  89.163     100  89.163     100   93.52
     300   93.52
#Mann= 3 , 0 , 0 
    -200     .04       0       0     .04       0     100     .04       0
Bank Sta=0,100
XS Rating Curve= 0 ,0
XS HTab Starting El and Incr=89.313,0.15, 100 
Exp/Cntr=0.3,0.1

Type RM Length L Ch R = 1 ,88750.* ,500,500,500
Node Last Edited Time=Sep/04/2012 12:17:54
#Sta/Elev= 6 
    -200   93.22       0   93.22       0  88.863     100  88.863     100   93.22
     300   93.22
#Mann= 3 , 0 , 0 
    -200     .04       0       0     .04       0     100     .04       0
Bank Sta=0,100
XS Rating Curve= 0 ,0
XS HTab Starting El and Incr=89.013,0.15, 100 
Exp/Cntr=0.3,0.1

Type RM Length L Ch R = 1 ,88250.* ,500,500,500
Node Last Edited Time=Sep/04/2012 12:17:54
#Sta/Elev= 6 
    -200   92.92       0   92.92       0  88.563     100  88.563     100   92.92
     300   92.92
#Mann= 3 , 0 , 0 
    -200     .04       0       0     .04       0     100     .04       0
Bank Sta=0,100
XS Rating Curve= 0 ,0
XS HTab Starting El and Incr=88.71301,0.15, 100 
Exp/Cntr=0.3,0.1

Type RM Length L Ch R = 1 ,87750.* ,500,500,500
Node Last Edited Time=Sep/04/2012 12:17:54
#Sta/Elev= 6 
    -200   92.62       0   92.62       0  88.263     100  88.263     100   92.62
     300   92.62
#Mann= 3 , 0 , 0 
    -200     .04       0       0     .04       0     100     .04       0
Bank Sta=0,100
XS Rating Curve= 0 ,0
XS HTab Starting El and Incr=88.413,0.15, 100 
Exp/Cntr=0.3,0.1

Type RM Length L Ch R = 1 ,87250.* ,500,500,500
Node Last Edited Time=Sep/04/2012 12:17:54
#Sta/Elev= 6 
    -200   92.32       0   92.32       0  87.963     100  87.963     100   92.32
     300   92.32
#Mann= 3 , 0 , 0 
    -200     .04       0       0     .04       0     100     .04       0
Bank Sta=0,100
XS Rating Curve= 0 ,0
XS HTab Starting El and Incr=88.113,0.15, 100 
Exp/Cntr=0.3,0.1

Type RM Length L Ch R = 1 ,86750.* ,500,500,500
Node Last Edited Time=Sep/04/2012 12:17:54
#Sta/Elev= 6 
    -200   92.02       0   92.02       0  87.663     100  87.663     100   92.02
     300   92.02
#Mann= 3 , 0 , 0 
    -200     .04       0       0     .04       0     100     .04       0
Bank Sta=0,100
XS Rating Curve= 0 ,0
XS HTab Starting El and Incr=87.813,0.15, 100 
Exp/Cntr=0.3,0.1

Type RM Length L Ch R = 1 ,86250.* ,500,500,500
Node Last Edited Time=Sep/04/2012 12:17:54
#Sta/Elev= 6 
    -200   91.72       0   91.72       0  87.363     100  87.363     100   91.72
     300   91.72
#Mann= 3 , 0 , 0 
    -200     .04       0       0     .04       0     100     .04       0
Bank Sta=0,100
XS Rating Curve= 0 ,0
XS HTab Starting El and Incr=87.513,0.15, 100 
Exp/Cntr=0.3,0.1

Type RM Length L Ch R = 1 ,85750.* ,500,500,500
Node Last Edited Time=Sep/04/2012 12:17:54
#Sta/Elev= 6 
    -200   91.42       0   91.42       0  87.063     100  87.063     100   91.42
     300   91.42
#Mann= 3 , 0 , 0 
    -200     .04       0       0     .04       0     100     .04       0
Bank Sta=0,100
XS Rating Curve= 0 ,0
XS HTab Starting El and Incr=87.21301,0.15, 100 
Exp/Cntr=0.3,0.1

Type RM Length L Ch R = 1 ,85250.* ,500,500,500
Node Last Edited Time=Sep/04/2012 12:17:54
#Sta/Elev= 6 
    -200   91.12       0   91.12       0  86.763     100  86.763     100   91.12
     300   91.12
#Mann= 3 , 0 , 0 
    -200     .04       0       0     .04       0     100     .04       0
Bank Sta=0,100
XS Rating Curve= 0 ,0
XS HTab Starting El and Incr=86.913,0.15, 100 
Exp/Cntr=0.3,0.1

Type RM Length L Ch R = 1 ,84750.* ,500,500,500
Node Last Edited Time=Sep/04/2012 12:17:54
#Sta/Elev= 6 
    -200   90.82       0   90.82       0  86.463     100  86.463     100   90.82
     300   90.82
#Mann= 3 , 0 , 0 
    -200     .04       0       0     .04       0     100     .04       0
Bank Sta=0,100
XS Rating Curve= 0 ,0
XS HTab Starting El and Incr=86.613,0.15, 100 
Exp/Cntr=0.3,0.1

Type RM Length L Ch R = 1 ,84250.* ,500,500,500
Node Last Edited Time=Sep/04/2012 12:17:54
#Sta/Elev= 6 
    -200   90.52       0   90.52       0  86.163     100  86.163     100   90.52
     300   90.52
#Mann= 3 , 0 , 0 
    -200     .04       0       0     .04       0     100     .04       0
Bank Sta=0,100
XS Rating Curve= 0 ,0
XS HTab Starting El and Incr=86.313,0.15, 100 
Exp/Cntr=0.3,0.1

Type RM Length L Ch R = 1 ,83750.* ,500,500,500
Node Last Edited Time=Sep/04/2012 12:17:54
#Sta/Elev= 6 
    -200   90.22       0   90.22       0  85.863     100  85.863     100   90.22
     300   90.22
#Mann= 3 , 0 , 0 
    -200     .04       0       0     .04       0     100     .04       0
Bank Sta=0,100
XS Rating Curve= 0 ,0
XS HTab Starting El and Incr=86.013,0.15, 100 
Exp/Cntr=0.3,0.1

Type RM Length L Ch R = 1 ,83250.* ,500,500,500
Node Last Edited Time=Sep/04/2012 12:17:54
#Sta/Elev= 6 
    -200   89.92       0   89.92       0  85.563     100  85.563     100   89.92
     300   89.92
#Mann= 3 , 0 , 0 
    -200     .04       0       0     .04       0     100     .04       0
Bank Sta=0,100
XS Rating Curve= 0 ,0
XS HTab Starting El and Incr=85.71301,0.15, 100 
Exp/Cntr=0.3,0.1

Type RM Length L Ch R = 1 ,82750.* ,500,500,500
Node Last Edited Time=Sep/04/2012 12:17:54
#Sta/Elev= 6 
    -200   89.62       0   89.62       0  85.263     100  85.263     100   89.62
     300   89.62
#Mann= 3 , 0 , 0 
    -200     .04       0       0     .04       0     100     .04       0
Bank Sta=0,100
XS Rating Curve= 0 ,0
XS HTab Starting El and Incr=85.413,0.15, 100 
Exp/Cntr=0.3,0.1

Type RM Length L Ch R = 1 ,82250.* ,500,500,500
Node Last Edited Time=Sep/04/2012 12:17:54
#Sta/Elev= 6 
    -200   89.32       0   89.32       0  84.963     100  84.963     100   89.32
     300   89.32
#Mann= 3 , 0 , 0 
    -200     .04       0       0     .04       0     100     .04       0
Bank Sta=0,100
XS Rating Curve= 0 ,0
XS HTab Starting El and Incr=85.113,0.15, 100 
Exp/Cntr=0.3,0.1

Type RM Length L Ch R = 1 ,81750.* ,500,500,500
Node Last Edited Time=Sep/04/2012 12:17:54
#Sta/Elev= 6 
    -200   89.02       0   89.02       0  84.663     100  84.663     100   89.02
     300   89.02
#Mann= 3 , 0 , 0 
    -200     .04       0       0     .04       0     100     .04       0
Bank Sta=0,100
XS Rating Curve= 0 ,0
XS HTab Starting El and Incr=84.813,0.15, 100 
Exp/Cntr=0.3,0.1

Type RM Length L Ch R = 1 ,81250.* ,500,500,500
Node Last Edited Time=Sep/04/2012 12:17:54
#Sta/Elev= 6 
    -200   88.72       0   88.72       0  84.363     100  84.363     100   88.72
     300   88.72
#Mann= 3 , 0 , 0 
    -200     .04       0       0     .04       0     100     .04       0
Bank Sta=0,100
XS Rating Curve= 0 ,0
XS HTab Starting El and Incr=84.513,0.15, 100 
Exp/Cntr=0.3,0.1

Type RM Length L Ch R = 1 ,80750.* ,500,500,500
Node Last Edited Time=Sep/04/2012 12:17:54
#Sta/Elev= 6 
    -200   88.42       0   88.42       0  84.063     100  84.063     100   88.42
     300   88.42
#Mann= 3 , 0 , 0 
    -200     .04       0       0     .04       0     100     .04       0
Bank Sta=0,100
XS Rating Curve= 0 ,0
XS HTab Starting El and Incr=84.21301,0.15, 100 
Exp/Cntr=0.3,0.1

Type RM Length L Ch R = 1 ,80250.* ,500,500,500
Node Last Edited Time=Sep/04/2012 12:17:54
#Sta/Elev= 6 
    -200   88.12       0   88.12       0  83.763     100  83.763     100   88.12
     300   88.12
#Mann= 3 , 0 , 0 
    -200     .04       0       0     .04       0     100     .04       0
Bank Sta=0,100
XS Rating Curve= 0 ,0
XS HTab Starting El and Incr=83.913,0.15, 100 
Exp/Cntr=0.3,0.1

Type RM Length L Ch R = 1 ,79750.* ,500,500,500
Node Last Edited Time=Sep/04/2012 12:17:54
#Sta/Elev= 6 
    -200   87.82       0   87.82       0  83.463     100  83.463     100   87.82
     300   87.82
#Mann= 3 , 0 , 0 
    -200     .04       0       0     .04       0     100     .04       0
Bank Sta=0,100
XS Rating Curve= 0 ,0
XS HTab Starting El and Incr=83.613,0.15, 100 
Exp/Cntr=0.3,0.1

Type RM Length L Ch R = 1 ,79250.* ,500,500,500
Node Last Edited Time=Sep/04/2012 12:17:54
#Sta/Elev= 6 
    -200   87.52       0   87.52       0  83.163     100  83.163     100   87.52
     300   87.52
#Mann= 3 , 0 , 0 
    -200     .04       0       0     .04       0     100     .04       0
Bank Sta=0,100
XS Rating Curve= 0 ,0
XS HTab Starting El and Incr=83.313,0.15, 100 
Exp/Cntr=0.3,0.1

Type RM Length L Ch R = 1 ,78750.* ,500,500,500
Node Last Edited Time=Sep/04/2012 12:17:54
#Sta/Elev= 6 
    -200   87.22       0   87.22       0  82.863     100  82.863     100   87.22
     300   87.22
#Mann= 3 , 0 , 0 
    -200     .04       0       0     .04       0     100     .04       0
Bank Sta=0,100
XS Rating Curve= 0 ,0
XS HTab Starting El and Incr=83.013,0.15, 100 
Exp/Cntr=0.3,0.1

Type RM Length L Ch R = 1 ,78250.* ,500,500,500
Node Last Edited Time=Sep/04/2012 12:17:54
#Sta/Elev= 6 
    -200   86.92       0   86.92       0  82.563     100  82.563     100   86.92
     300   86.92
#Mann= 3 , 0 , 0 
    -200     .04       0       0     .04       0     100     .04       0
Bank Sta=0,100
XS Rating Curve= 0 ,0
XS HTab Starting El and Incr=82.71301,0.15, 100 
Exp/Cntr=0.3,0.1

Type RM Length L Ch R = 1 ,77750.* ,500,500,500
Node Last Edited Time=Sep/04/2012 12:17:54
#Sta/Elev= 6 
    -200   86.62       0   86.62       0  82.263     100  82.263     100   86.62
     300   86.62
#Mann= 3 , 0 , 0 
    -200     .04       0       0     .04       0     100     .04       0
Bank Sta=0,100
XS Rating Curve= 0 ,0
XS HTab Starting El and Incr=82.413,0.15, 100 
Exp/Cntr=0.3,0.1

Type RM Length L Ch R = 1 ,77250.* ,500,500,500
Node Last Edited Time=Sep/04/2012 12:17:54
#Sta/Elev= 6 
    -200   86.32       0   86.32       0  81.963     100  81.963     100   86.32
     300   86.32
#Mann= 3 , 0 , 0 
    -200     .04       0       0     .04       0     100     .04       0
Bank Sta=0,100
XS Rating Curve= 0 ,0
XS HTab Starting El and Incr=82.113,0.15, 100 
Exp/Cntr=0.3,0.1

Type RM Length L Ch R = 1 ,76750.* ,500,500,500
Node Last Edited Time=Sep/04/2012 12:17:54
#Sta/Elev= 6 
    -200   86.02       0   86.02       0  81.663     100  81.663     100   86.02
     300   86.02
#Mann= 3 , 0 , 0 
    -200     .04       0       0     .04       0     100     .04       0
Bank Sta=0,100
XS Rating Curve= 0 ,0
XS HTab Starting El and Incr=81.813,0.15, 100 
Exp/Cntr=0.3,0.1

Type RM Length L Ch R = 1 ,76250.* ,500,500,500
Node Last Edited Time=Sep/04/2012 12:17:54
#Sta/Elev= 6 
    -200   85.72       0   85.72       0  81.363     100  81.363     100   85.72
     300   85.72
#Mann= 3 , 0 , 0 
    -200     .04       0       0     .04       0     100     .04       0
Bank Sta=0,100
XS Rating Curve= 0 ,0
XS HTab Starting El and Incr=81.513,0.15, 100 
Exp/Cntr=0.3,0.1

Type RM Length L Ch R = 1 ,75750.* ,500,500,500
Node Last Edited Time=Sep/04/2012 12:17:54
#Sta/Elev= 6 
    -200   85.42       0   85.42       0  81.063     100  81.063     100   85.42
     300   85.42
#Mann= 3 , 0 , 0 
    -200     .04       0       0     .04       0     100     .04       0
Bank Sta=0,100
XS Rating Curve= 0 ,0
XS HTab Starting El and Incr=81.21301,0.15, 100 
Exp/Cntr=0.3,0.1

Type RM Length L Ch R = 1 ,75250   ,500,500,500
Node Last Edited Time=Sep/04/2012 12:13:09
#Sta/Elev= 6 
    -200   85.12       0   85.12       0  80.763     100  80.763     100   85.12
     300   85.12
#Mann= 3 , 0 , 0 
    -200     .04       0       0     .04       0     100     .04       0
Bank Sta=0,100
XS Rating Curve= 0 ,0
XS HTab Starting El and Incr=80.913,0.15, 100 
Exp/Cntr=0.3,0.1

Type RM Length L Ch R = 1 ,74750.* ,500,500,500
Node Last Edited Time=Sep/04/2012 12:17:54
#Sta/Elev= 6 
    -200   84.82       0   84.82       0  80.463     100  80.463     100   84.82
     300   84.82
#Mann= 3 , 0 , 0 
    -200     .04       0       0     .04       0     100     .04       0
Bank Sta=0,100
XS Rating Curve= 0 ,0
XS HTab Starting El and Incr=80.613,0.15, 100 
Exp/Cntr=0.3,0.1

Type RM Length L Ch R = 1 ,74250.* ,500,500,500
Node Last Edited Time=Sep/04/2012 12:17:54
#Sta/Elev= 6 
    -200   84.52       0   84.52       0  80.163     100  80.163     100   84.52
     300   84.52
#Mann= 3 , 0 , 0 
    -200     .04       0       0     .04       0     100     .04       0
Bank Sta=0,100
XS Rating Curve= 0 ,0
XS HTab Starting El and Incr=80.313,0.15, 100 
Exp/Cntr=0.3,0.1

Type RM Length L Ch R = 1 ,73750.* ,500,500,500
Node Last Edited Time=Sep/04/2012 12:17:54
#Sta/Elev= 6 
    -200   84.22       0   84.22       0  79.863     100  79.863     100   84.22
     300   84.22
#Mann= 3 , 0 , 0 
    -200     .04       0       0     .04       0     100     .04       0
Bank Sta=0,100
XS Rating Curve= 0 ,0
XS HTab Starting El and Incr=80.013,0.15, 100 
Exp/Cntr=0.3,0.1

Type RM Length L Ch R = 1 ,73250.* ,500,500,500
Node Last Edited Time=Sep/04/2012 12:17:54
#Sta/Elev= 6 
    -200   83.92       0   83.92       0  79.563     100  79.563     100   83.92
     300   83.92
#Mann= 3 , 0 , 0 
    -200     .04       0       0     .04       0     100     .04       0
Bank Sta=0,100
XS Rating Curve= 0 ,0
XS HTab Starting El and Incr=79.71301,0.15, 100 
Exp/Cntr=0.3,0.1

Type RM Length L Ch R = 1 ,72750.* ,500,500,500
Node Last Edited Time=Sep/04/2012 12:17:54
#Sta/Elev= 6 
    -200   83.62       0   83.62       0  79.263     100  79.263     100   83.62
     300   83.62
#Mann= 3 , 0 , 0 
    -200     .04       0       0     .04       0     100     .04       0
Bank Sta=0,100
XS Rating Curve= 0 ,0
XS HTab Starting El and Incr=79.413,0.15, 100 
Exp/Cntr=0.3,0.1

Type RM Length L Ch R = 1 ,72250.* ,500,500,500
Node Last Edited Time=Sep/04/2012 12:17:54
#Sta/Elev= 6 
    -200   83.32       0   83.32       0  78.963     100  78.963     100   83.32
     300   83.32
#Mann= 3 , 0 , 0 
    -200     .04       0       0     .04       0     100     .04       0
Bank Sta=0,100
XS Rating Curve= 0 ,0
XS HTab Starting El and Incr=79.113,0.15, 100 
Exp/Cntr=0.3,0.1

Type RM Length L Ch R = 1 ,71750.* ,500,500,500
Node Last Edited Time=Sep/04/2012 12:17:54
#Sta/Elev= 6 
    -200   83.02       0   83.02       0  78.663     100  78.663     100   83.02
     300   83.02
#Mann= 3 , 0 , 0 
    -200     .04       0       0     .04       0     100     .04       0
Bank Sta=0,100
XS Rating Curve= 0 ,0
XS HTab Starting El and Incr=78.813,0.15, 100 
Exp/Cntr=0.3,0.1

Type RM Length L Ch R = 1 ,71250.* ,500,500,500
Node Last Edited Time=Sep/04/2012 12:17:54
#Sta/Elev= 6 
    -200   82.72       0   82.72       0  78.363     100  78.363     100   82.72
     300   82.72
#Mann= 3 , 0 , 0 
    -200     .04       0       0     .04       0     100     .04       0
Bank Sta=0,100
XS Rating Curve= 0 ,0
XS HTab Starting El and Incr=78.513,0.15, 100 
Exp/Cntr=0.3,0.1

Type RM Length L Ch R = 1 ,70750.* ,500,500,500
Node Last Edited Time=Sep/04/2012 12:17:54
#Sta/Elev= 6 
    -200   82.42       0   82.42       0  78.063     100  78.063     100   82.42
     300   82.42
#Mann= 3 , 0 , 0 
    -200     .04       0       0     .04       0     100     .04       0
Bank Sta=0,100
XS Rating Curve= 0 ,0
XS HTab Starting El and Incr=78.21301,0.15, 100 
Exp/Cntr=0.3,0.1

Type RM Length L Ch R = 1 ,70250.* ,500,500,500
Node Last Edited Time=Sep/04/2012 12:17:54
#Sta/Elev= 6 
    -200   82.12       0   82.12       0  77.763     100  77.763     100   82.12
     300   82.12
#Mann= 3 , 0 , 0 
    -200     .04       0       0     .04       0     100     .04       0
Bank Sta=0,100
XS Rating Curve= 0 ,0
XS HTab Starting El and Incr=77.913,0.15, 100 
Exp/Cntr=0.3,0.1

Type RM Length L Ch R = 1 ,69750.* ,500,500,500
Node Last Edited Time=Sep/04/2012 12:17:54
#Sta/Elev= 6 
    -200   81.82       0   81.82       0  77.463     100  77.463     100   81.82
     300   81.82
#Mann= 3 , 0 , 0 
    -200     .04       0       0     .04       0     100     .04       0
Bank Sta=0,100
XS Rating Curve= 0 ,0
XS HTab Starting El and Incr=77.613,0.15, 100 
Exp/Cntr=0.3,0.1

Type RM Length L Ch R = 1 ,69250.* ,500,500,500
Node Last Edited Time=Sep/04/2012 12:17:54
#Sta/Elev= 6 
    -200   81.52       0   81.52       0  77.163     100  77.163     100   81.52
     300   81.52
#Mann= 3 , 0 , 0 
    -200     .04       0       0     .04       0     100     .04       0
Bank Sta=0,100
XS Rating Curve= 0 ,0
XS HTab Starting El and Incr=77.313,0.15, 100 
Exp/Cntr=0.3,0.1

Type RM Length L Ch R = 1 ,68750.* ,500,500,500
Node Last Edited Time=Sep/04/2012 12:17:54
#Sta/Elev= 6 
    -200   81.22       0   81.22       0  76.863     100  76.863     100   81.22
     300   81.22
#Mann= 3 , 0 , 0 
    -200     .04       0       0     .04       0     100     .04       0
Bank Sta=0,100
XS Rating Curve= 0 ,0
XS HTab Starting El and Incr=77.013,0.15, 100 
Exp/Cntr=0.3,0.1

Type RM Length L Ch R = 1 ,68250.* ,500,500,500
Node Last Edited Time=Sep/04/2012 12:17:54
#Sta/Elev= 6 
    -200   80.92       0   80.92       0  76.563     100  76.563     100   80.92
     300   80.92
#Mann= 3 , 0 , 0 
    -200     .04       0       0     .04       0     100     .04       0
Bank Sta=0,100
XS Rating Curve= 0 ,0
XS HTab Starting El and Incr=76.71301,0.15, 100 
Exp/Cntr=0.3,0.1

Type RM Length L Ch R = 1 ,67750.* ,500,500,500
Node Last Edited Time=Sep/04/2012 12:17:54
#Sta/Elev= 6 
    -200   80.62       0   80.62       0  76.263     100  76.263     100   80.62
     300   80.62
#Mann= 3 , 0 , 0 
    -200     .04       0       0     .04       0     100     .04       0
Bank Sta=0,100
XS Rating Curve= 0 ,0
XS HTab Starting El and Incr=76.413,0.15, 100 
Exp/Cntr=0.3,0.1

Type RM Length L Ch R = 1 ,67250.* ,500,500,500
Node Last Edited Time=Sep/04/2012 12:17:54
#Sta/Elev= 6 
    -200   80.32       0   80.32       0  75.963     100  75.963     100   80.32
     300   80.32
#Mann= 3 , 0 , 0 
    -200     .04       0       0     .04       0     100     .04       0
Bank Sta=0,100
XS Rating Curve= 0 ,0
XS HTab Starting El and Incr=76.113,0.15, 100 
Exp/Cntr=0.3,0.1

Type RM Length L Ch R = 1 ,66750.* ,500,500,500
Node Last Edited Time=Sep/04/2012 12:17:54
#Sta/Elev= 6 
    -200   80.02       0   80.02       0  75.663     100  75.663     100   80.02
     300   80.02
#Mann= 3 , 0 , 0 
    -200     .04       0       0     .04       0     100     .04       0
Bank Sta=0,100
XS Rating Curve= 0 ,0
XS HTab Starting El and Incr=75.813,0.15, 100 
Exp/Cntr=0.3,0.1

Type RM Length L Ch R = 1 ,66250.* ,500,500,500
Node Last Edited Time=Sep/04/2012 12:17:54
#Sta/Elev= 6 
    -200   79.72       0   79.72       0  75.363     100  75.363     100   79.72
     300   79.72
#Mann= 3 , 0 , 0 
    -200     .04       0       0     .04       0     100     .04       0
Bank Sta=0,100
XS Rating Curve= 0 ,0
XS HTab Starting El and Incr=75.513,0.15, 100 
Exp/Cntr=0.3,0.1

Type RM Length L Ch R = 1 ,65750.* ,500,500,500
Node Last Edited Time=Sep/04/2012 12:17:54
#Sta/Elev= 6 
    -200   79.42       0   79.42       0  75.063     100  75.063     100   79.42
     300   79.42
#Mann= 3 , 0 , 0 
    -200     .04       0       0     .04       0     100     .04       0
Bank Sta=0,100
XS Rating Curve= 0 ,0
XS HTab Starting El and Incr=75.21301,0.15, 100 
Exp/Cntr=0.3,0.1

Type RM Length L Ch R = 1 ,65250.* ,500,500,500
Node Last Edited Time=Sep/04/2012 12:17:54
#Sta/Elev= 6 
    -200   79.12       0   79.12       0  74.763     100  74.763     100   79.12
     300   79.12
#Mann= 3 , 0 , 0 
    -200     .04       0       0     .04       0     100     .04       0
Bank Sta=0,100
XS Rating Curve= 0 ,0
XS HTab Starting El and Incr=74.913,0.15, 100 
Exp/Cntr=0.3,0.1

Type RM Length L Ch R = 1 ,64750.* ,500,500,500
Node Last Edited Time=Sep/04/2012 12:17:54
#Sta/Elev= 6 
    -200   78.82       0   78.82       0  74.463     100  74.463     100   78.82
     300   78.82
#Mann= 3 , 0 , 0 
    -200     .04       0       0     .04       0     100     .04       0
Bank Sta=0,100
XS Rating Curve= 0 ,0
XS HTab Starting El and Incr=74.613,0.15, 100 
Exp/Cntr=0.3,0.1

Type RM Length L Ch R = 1 ,64250.* ,500,500,500
Node Last Edited Time=Sep/04/2012 12:17:54
#Sta/Elev= 6 
    -200   78.52       0   78.52       0  74.163     100  74.163     100   78.52
     300   78.52
#Mann= 3 , 0 , 0 
    -200     .04       0       0     .04       0     100     .04       0
Bank Sta=0,100
XS Rating Curve= 0 ,0
XS HTab Starting El and Incr=74.313,0.15, 100 
Exp/Cntr=0.3,0.1

Type RM Length L Ch R = 1 ,63750.* ,500,500,500
Node Last Edited Time=Sep/04/2012 12:17:54
#Sta/Elev= 6 
    -200   78.22       0   78.22       0  73.863     100  73.863     100   78.22
     300   78.22
#Mann= 3 , 0 , 0 
    -200     .04       0       0     .04       0     100     .04       0
Bank Sta=0,100
XS Rating Curve= 0 ,0
XS HTab Starting El and Incr=74.013,0.15, 100 
Exp/Cntr=0.3,0.1

Type RM Length L Ch R = 1 ,63250.* ,500,500,500
Node Last Edited Time=Sep/04/2012 12:17:54
#Sta/Elev= 6 
    -200   77.92       0   77.92       0  73.563     100  73.563     100   77.92
     300   77.92
#Mann= 3 , 0 , 0 
    -200     .04       0       0     .04       0     100     .04       0
Bank Sta=0,100
XS Rating Curve= 0 ,0
XS HTab Starting El and Incr=73.71301,0.15, 100 
Exp/Cntr=0.3,0.1

Type RM Length L Ch R = 1 ,62750.* ,500,500,500
Node Last Edited Time=Sep/04/2012 12:17:54
#Sta/Elev= 6 
    -200   77.62       0   77.62       0  73.263     100  73.263     100   77.62
     300   77.62
#Mann= 3 , 0 , 0 
    -200     .04       0       0     .04       0     100     .04       0
Bank Sta=0,100
XS Rating Curve= 0 ,0
XS HTab Starting El and Incr=73.413,0.15, 100 
Exp/Cntr=0.3,0.1
