Geom Title=Geom_channel_100m
Program Version=4.10
Viewing Rectangle= 0 , 1 , 1 , 0 

River Reach=test            ,test            
Reach XY= 2 
-0.06527249683140.55766793409379 0.97021546261090.55766793409379
Rch Text X Y=0.1935995,0.5576679
Reverse River Text= 0 

Type RM Length L Ch R = 1 ,99750   ,100,100,100
Node Last Edited Time=Sep/04/2012 12:12:44
#Sta/Elev= 6 
    -200   99.82       0   99.82       0  95.463     100  95.463     100   99.82
     300   99.82
#Mann= 3 , 0 , 0 
    -200     .04       0       0     .04       0     100     .04       0
Bank Sta=0,100
XS Rating Curve= 0 ,0
XS HTab Starting El and Incr=95.613,0.1, 100 
Exp/Cntr=0.3,0.1

Type RM Length L Ch R = 1 ,99650.* ,100,100,100
Node Last Edited Time=Sep/04/2012 13:09:58
#Sta/Elev= 6 
    -200   99.76       0   99.76       0  95.403     100  95.403     100   99.76
     300   99.76
#Mann= 3 , 0 , 0 
    -200     .04       0       0     .04       0     100     .04       0
Bank Sta=0,100
XS Rating Curve= 0 ,0
XS HTab Starting El and Incr=95.55,0.1, 100 
Exp/Cntr=0.3,0.1

Type RM Length L Ch R = 1 ,99550.* ,100,100,100
Node Last Edited Time=Sep/04/2012 13:09:58
#Sta/Elev= 6 
    -200    99.7       0    99.7       0  95.343     100  95.343     100    99.7
     300    99.7
#Mann= 3 , 0 , 0 
    -200     .04       0       0     .04       0     100     .04       0
Bank Sta=0,100
XS Rating Curve= 0 ,0
XS HTab Starting El and Incr=95.49,0.1, 100 
Exp/Cntr=0.3,0.1

Type RM Length L Ch R = 1 ,99450.* ,100,100,100
Node Last Edited Time=Sep/04/2012 13:09:58
#Sta/Elev= 6 
    -200   99.64       0   99.64       0  95.283     100  95.283     100   99.64
     300   99.64
#Mann= 3 , 0 , 0 
    -200     .04       0       0     .04       0     100     .04       0
Bank Sta=0,100
XS Rating Curve= 0 ,0
XS HTab Starting El and Incr=95.43,0.1, 100 
Exp/Cntr=0.3,0.1

Type RM Length L Ch R = 1 ,99350.* ,100,100,100
Node Last Edited Time=Sep/04/2012 13:09:58
#Sta/Elev= 6 
    -200   99.58       0   99.58       0  95.223     100  95.223     100   99.58
     300   99.58
#Mann= 3 , 0 , 0 
    -200     .04       0       0     .04       0     100     .04       0
Bank Sta=0,100
XS Rating Curve= 0 ,0
XS HTab Starting El and Incr=95.37,0.1, 100 
Exp/Cntr=0.3,0.1

Type RM Length L Ch R = 1 ,99250.* ,100,100,100
Node Last Edited Time=Sep/04/2012 13:09:58
#Sta/Elev= 6 
    -200   99.52       0   99.52       0  95.163     100  95.163     100   99.52
     300   99.52
#Mann= 3 , 0 , 0 
    -200     .04       0       0     .04       0     100     .04       0
Bank Sta=0,100
XS Rating Curve= 0 ,0
XS HTab Starting El and Incr=95.31,0.1, 100 
Exp/Cntr=0.3,0.1

Type RM Length L Ch R = 1 ,99150.* ,100,100,100
Node Last Edited Time=Sep/04/2012 13:09:58
#Sta/Elev= 6 
    -200   99.46       0   99.46       0  95.103     100  95.103     100   99.46
     300   99.46
#Mann= 3 , 0 , 0 
    -200     .04       0       0     .04       0     100     .04       0
Bank Sta=0,100
XS Rating Curve= 0 ,0
XS HTab Starting El and Incr=95.25,0.1, 100 
Exp/Cntr=0.3,0.1

Type RM Length L Ch R = 1 ,99050.* ,100,100,100
Node Last Edited Time=Sep/04/2012 13:09:58
#Sta/Elev= 6 
    -200    99.4       0    99.4       0  95.043     100  95.043     100    99.4
     300    99.4
#Mann= 3 , 0 , 0 
    -200     .04       0       0     .04       0     100     .04       0
Bank Sta=0,100
XS Rating Curve= 0 ,0
XS HTab Starting El and Incr=95.19,0.1, 100 
Exp/Cntr=0.3,0.1

Type RM Length L Ch R = 1 ,98950.* ,100,100,100
Node Last Edited Time=Sep/04/2012 13:09:58
#Sta/Elev= 6 
    -200   99.34       0   99.34       0  94.983     100  94.983     100   99.34
     300   99.34
#Mann= 3 , 0 , 0 
    -200     .04       0       0     .04       0     100     .04       0
Bank Sta=0,100
XS Rating Curve= 0 ,0
XS HTab Starting El and Incr=95.13,0.1, 100 
Exp/Cntr=0.3,0.1

Type RM Length L Ch R = 1 ,98850.* ,100,100,100
Node Last Edited Time=Sep/04/2012 13:09:58
#Sta/Elev= 6 
    -200   99.28       0   99.28       0  94.923     100  94.923     100   99.28
     300   99.28
#Mann= 3 , 0 , 0 
    -200     .04       0       0     .04       0     100     .04       0
Bank Sta=0,100
XS Rating Curve= 0 ,0
XS HTab Starting El and Incr=95.07,0.1, 100 
Exp/Cntr=0.3,0.1

Type RM Length L Ch R = 1 ,98750.* ,100,100,100
Node Last Edited Time=Sep/04/2012 13:09:58
#Sta/Elev= 6 
    -200   99.22       0   99.22       0  94.863     100  94.863     100   99.22
     300   99.22
#Mann= 3 , 0 , 0 
    -200     .04       0       0     .04       0     100     .04       0
Bank Sta=0,100
XS Rating Curve= 0 ,0
XS HTab Starting El and Incr=95.01,0.1, 100 
Exp/Cntr=0.3,0.1

Type RM Length L Ch R = 1 ,98650.* ,100,100,100
Node Last Edited Time=Sep/04/2012 13:09:58
#Sta/Elev= 6 
    -200   99.16       0   99.16       0  94.803     100  94.803     100   99.16
     300   99.16
#Mann= 3 , 0 , 0 
    -200     .04       0       0     .04       0     100     .04       0
Bank Sta=0,100
XS Rating Curve= 0 ,0
XS HTab Starting El and Incr=94.95,0.1, 100 
Exp/Cntr=0.3,0.1

Type RM Length L Ch R = 1 ,98550.* ,100,100,100
Node Last Edited Time=Sep/04/2012 13:09:58
#Sta/Elev= 6 
    -200    99.1       0    99.1       0  94.743     100  94.743     100    99.1
     300    99.1
#Mann= 3 , 0 , 0 
    -200     .04       0       0     .04       0     100     .04       0
Bank Sta=0,100
XS Rating Curve= 0 ,0
XS HTab Starting El and Incr=94.89,0.1, 100 
Exp/Cntr=0.3,0.1

Type RM Length L Ch R = 1 ,98450.* ,100,100,100
Node Last Edited Time=Sep/04/2012 13:09:58
#Sta/Elev= 6 
    -200   99.04       0   99.04       0  94.683     100  94.683     100   99.04
     300   99.04
#Mann= 3 , 0 , 0 
    -200     .04       0       0     .04       0     100     .04       0
Bank Sta=0,100
XS Rating Curve= 0 ,0
XS HTab Starting El and Incr=94.83,0.1, 100 
Exp/Cntr=0.3,0.1

Type RM Length L Ch R = 1 ,98350.* ,100,100,100
Node Last Edited Time=Sep/04/2012 13:09:58
#Sta/Elev= 6 
    -200   98.98       0   98.98       0  94.623     100  94.623     100   98.98
     300   98.98
#Mann= 3 , 0 , 0 
    -200     .04       0       0     .04       0     100     .04       0
Bank Sta=0,100
XS Rating Curve= 0 ,0
XS HTab Starting El and Incr=94.77,0.1, 100 
Exp/Cntr=0.3,0.1

Type RM Length L Ch R = 1 ,98250.* ,100,100,100
Node Last Edited Time=Sep/04/2012 13:09:58
#Sta/Elev= 6 
    -200   98.92       0   98.92       0  94.563     100  94.563     100   98.92
     300   98.92
#Mann= 3 , 0 , 0 
    -200     .04       0       0     .04       0     100     .04       0
Bank Sta=0,100
XS Rating Curve= 0 ,0
XS HTab Starting El and Incr=94.71,0.1, 100 
Exp/Cntr=0.3,0.1

Type RM Length L Ch R = 1 ,98150.* ,100,100,100
Node Last Edited Time=Sep/04/2012 13:09:58
#Sta/Elev= 6 
    -200   98.86       0   98.86       0  94.503     100  94.503     100   98.86
     300   98.86
#Mann= 3 , 0 , 0 
    -200     .04       0       0     .04       0     100     .04       0
Bank Sta=0,100
XS Rating Curve= 0 ,0
XS HTab Starting El and Incr=94.65,0.1, 100 
Exp/Cntr=0.3,0.1

Type RM Length L Ch R = 1 ,98050.* ,100,100,100
Node Last Edited Time=Sep/04/2012 13:09:58
#Sta/Elev= 6 
    -200    98.8       0    98.8       0  94.443     100  94.443     100    98.8
     300    98.8
#Mann= 3 , 0 , 0 
    -200     .04       0       0     .04       0     100     .04       0
Bank Sta=0,100
XS Rating Curve= 0 ,0
XS HTab Starting El and Incr=94.59,0.1, 100 
Exp/Cntr=0.3,0.1

Type RM Length L Ch R = 1 ,97950.* ,100,100,100
Node Last Edited Time=Sep/04/2012 13:09:58
#Sta/Elev= 6 
    -200   98.74       0   98.74       0  94.383     100  94.383     100   98.74
     300   98.74
#Mann= 3 , 0 , 0 
    -200     .04       0       0     .04       0     100     .04       0
Bank Sta=0,100
XS Rating Curve= 0 ,0
XS HTab Starting El and Incr=94.53,0.1, 100 
Exp/Cntr=0.3,0.1

Type RM Length L Ch R = 1 ,97850.* ,100,100,100
Node Last Edited Time=Sep/04/2012 13:09:58
#Sta/Elev= 6 
    -200   98.68       0   98.68       0  94.323     100  94.323     100   98.68
     300   98.68
#Mann= 3 , 0 , 0 
    -200     .04       0       0     .04       0     100     .04       0
Bank Sta=0,100
XS Rating Curve= 0 ,0
XS HTab Starting El and Incr=94.47,0.1, 100 
Exp/Cntr=0.3,0.1

Type RM Length L Ch R = 1 ,97750.* ,100,100,100
Node Last Edited Time=Sep/04/2012 13:09:58
#Sta/Elev= 6 
    -200   98.62       0   98.62       0  94.263     100  94.263     100   98.62
     300   98.62
#Mann= 3 , 0 , 0 
    -200     .04       0       0     .04       0     100     .04       0
Bank Sta=0,100
XS Rating Curve= 0 ,0
XS HTab Starting El and Incr=94.41,0.1, 100 
Exp/Cntr=0.3,0.1

Type RM Length L Ch R = 1 ,97650.* ,100,100,100
Node Last Edited Time=Sep/04/2012 13:09:58
#Sta/Elev= 6 
    -200   98.56       0   98.56       0  94.203     100  94.203     100   98.56
     300   98.56
#Mann= 3 , 0 , 0 
    -200     .04       0       0     .04       0     100     .04       0
Bank Sta=0,100
XS Rating Curve= 0 ,0
XS HTab Starting El and Incr=94.35,0.1, 100 
Exp/Cntr=0.3,0.1

Type RM Length L Ch R = 1 ,97550.* ,100,100,100
Node Last Edited Time=Sep/04/2012 13:09:58
#Sta/Elev= 6 
    -200    98.5       0    98.5       0  94.143     100  94.143     100    98.5
     300    98.5
#Mann= 3 , 0 , 0 
    -200     .04       0       0     .04       0     100     .04       0
Bank Sta=0,100
XS Rating Curve= 0 ,0
XS HTab Starting El and Incr=94.29,0.1, 100 
Exp/Cntr=0.3,0.1

Type RM Length L Ch R = 1 ,97450.* ,100,100,100
Node Last Edited Time=Sep/04/2012 13:09:58
#Sta/Elev= 6 
    -200   98.44       0   98.44       0  94.083     100  94.083     100   98.44
     300   98.44
#Mann= 3 , 0 , 0 
    -200     .04       0       0     .04       0     100     .04       0
Bank Sta=0,100
XS Rating Curve= 0 ,0
XS HTab Starting El and Incr=94.23,0.1, 100 
Exp/Cntr=0.3,0.1

Type RM Length L Ch R = 1 ,97350.* ,100,100,100
Node Last Edited Time=Sep/04/2012 13:09:58
#Sta/Elev= 6 
    -200   98.38       0   98.38       0  94.023     100  94.023     100   98.38
     300   98.38
#Mann= 3 , 0 , 0 
    -200     .04       0       0     .04       0     100     .04       0
Bank Sta=0,100
XS Rating Curve= 0 ,0
XS HTab Starting El and Incr=94.17,0.1, 100 
Exp/Cntr=0.3,0.1

Type RM Length L Ch R = 1 ,97250.* ,100,100,100
Node Last Edited Time=Sep/04/2012 13:09:58
#Sta/Elev= 6 
    -200   98.32       0   98.32       0  93.963     100  93.963     100   98.32
     300   98.32
#Mann= 3 , 0 , 0 
    -200     .04       0       0     .04       0     100     .04       0
Bank Sta=0,100
XS Rating Curve= 0 ,0
XS HTab Starting El and Incr=94.11,0.1, 100 
Exp/Cntr=0.3,0.1

Type RM Length L Ch R = 1 ,97150.* ,100,100,100
Node Last Edited Time=Sep/04/2012 13:09:58
#Sta/Elev= 6 
    -200   98.26       0   98.26       0  93.903     100  93.903     100   98.26
     300   98.26
#Mann= 3 , 0 , 0 
    -200     .04       0       0     .04       0     100     .04       0
Bank Sta=0,100
XS Rating Curve= 0 ,0
XS HTab Starting El and Incr=94.05,0.1, 100 
Exp/Cntr=0.3,0.1

Type RM Length L Ch R = 1 ,97050.* ,100,100,100
Node Last Edited Time=Sep/04/2012 13:09:58
#Sta/Elev= 6 
    -200    98.2       0    98.2       0  93.843     100  93.843     100    98.2
     300    98.2
#Mann= 3 , 0 , 0 
    -200     .04       0       0     .04       0     100     .04       0
Bank Sta=0,100
XS Rating Curve= 0 ,0
XS HTab Starting El and Incr=93.99,0.1, 100 
Exp/Cntr=0.3,0.1

Type RM Length L Ch R = 1 ,96950.* ,100,100,100
Node Last Edited Time=Sep/04/2012 13:09:58
#Sta/Elev= 6 
    -200   98.14       0   98.14       0  93.783     100  93.783     100   98.14
     300   98.14
#Mann= 3 , 0 , 0 
    -200     .04       0       0     .04       0     100     .04       0
Bank Sta=0,100
XS Rating Curve= 0 ,0
XS HTab Starting El and Incr=93.93,0.1, 100 
Exp/Cntr=0.3,0.1

Type RM Length L Ch R = 1 ,96850.* ,100,100,100
Node Last Edited Time=Sep/04/2012 13:09:58
#Sta/Elev= 6 
    -200   98.08       0   98.08       0  93.723     100  93.723     100   98.08
     300   98.08
#Mann= 3 , 0 , 0 
    -200     .04       0       0     .04       0     100     .04       0
Bank Sta=0,100
XS Rating Curve= 0 ,0
XS HTab Starting El and Incr=93.87,0.1, 100 
Exp/Cntr=0.3,0.1

Type RM Length L Ch R = 1 ,96750.* ,100,100,100
Node Last Edited Time=Sep/04/2012 13:09:58
#Sta/Elev= 6 
    -200   98.02       0   98.02       0  93.663     100  93.663     100   98.02
     300   98.02
#Mann= 3 , 0 , 0 
    -200     .04       0       0     .04       0     100     .04       0
Bank Sta=0,100
XS Rating Curve= 0 ,0
XS HTab Starting El and Incr=93.81,0.1, 100 
Exp/Cntr=0.3,0.1

Type RM Length L Ch R = 1 ,96650.* ,100,100,100
Node Last Edited Time=Sep/04/2012 13:09:58
#Sta/Elev= 6 
    -200   97.96       0   97.96       0  93.603     100  93.603     100   97.96
     300   97.96
#Mann= 3 , 0 , 0 
    -200     .04       0       0     .04       0     100     .04       0
Bank Sta=0,100
XS Rating Curve= 0 ,0
XS HTab Starting El and Incr=93.75,0.1, 100 
Exp/Cntr=0.3,0.1

Type RM Length L Ch R = 1 ,96550.* ,100,100,100
Node Last Edited Time=Sep/04/2012 13:09:58
#Sta/Elev= 6 
    -200    97.9       0    97.9       0  93.543     100  93.543     100    97.9
     300    97.9
#Mann= 3 , 0 , 0 
    -200     .04       0       0     .04       0     100     .04       0
Bank Sta=0,100
XS Rating Curve= 0 ,0
XS HTab Starting El and Incr=93.69,0.1, 100 
Exp/Cntr=0.3,0.1

Type RM Length L Ch R = 1 ,96450.* ,100,100,100
Node Last Edited Time=Sep/04/2012 13:09:58
#Sta/Elev= 6 
    -200   97.84       0   97.84       0  93.483     100  93.483     100   97.84
     300   97.84
#Mann= 3 , 0 , 0 
    -200     .04       0       0     .04       0     100     .04       0
Bank Sta=0,100
XS Rating Curve= 0 ,0
XS HTab Starting El and Incr=93.63,0.1, 100 
Exp/Cntr=0.3,0.1

Type RM Length L Ch R = 1 ,96350.* ,100,100,100
Node Last Edited Time=Sep/04/2012 13:09:58
#Sta/Elev= 6 
    -200   97.78       0   97.78       0  93.423     100  93.423     100   97.78
     300   97.78
#Mann= 3 , 0 , 0 
    -200     .04       0       0     .04       0     100     .04       0
Bank Sta=0,100
XS Rating Curve= 0 ,0
XS HTab Starting El and Incr=93.57,0.1, 100 
Exp/Cntr=0.3,0.1

Type RM Length L Ch R = 1 ,96250.* ,100,100,100
Node Last Edited Time=Sep/04/2012 13:09:58
#Sta/Elev= 6 
    -200   97.72       0   97.72       0  93.363     100  93.363     100   97.72
     300   97.72
#Mann= 3 , 0 , 0 
    -200     .04       0       0     .04       0     100     .04       0
Bank Sta=0,100
XS Rating Curve= 0 ,0
XS HTab Starting El and Incr=93.51,0.1, 100 
Exp/Cntr=0.3,0.1

Type RM Length L Ch R = 1 ,96150.* ,100,100,100
Node Last Edited Time=Sep/04/2012 13:09:58
#Sta/Elev= 6 
    -200   97.66       0   97.66       0  93.303     100  93.303     100   97.66
     300   97.66
#Mann= 3 , 0 , 0 
    -200     .04       0       0     .04       0     100     .04       0
Bank Sta=0,100
XS Rating Curve= 0 ,0
XS HTab Starting El and Incr=93.45,0.1, 100 
Exp/Cntr=0.3,0.1

Type RM Length L Ch R = 1 ,96050.* ,100,100,100
Node Last Edited Time=Sep/04/2012 13:09:58
#Sta/Elev= 6 
    -200    97.6       0    97.6       0  93.243     100  93.243     100    97.6
     300    97.6
#Mann= 3 , 0 , 0 
    -200     .04       0       0     .04       0     100     .04       0
Bank Sta=0,100
XS Rating Curve= 0 ,0
XS HTab Starting El and Incr=93.39,0.1, 100 
Exp/Cntr=0.3,0.1

Type RM Length L Ch R = 1 ,95950.* ,100,100,100
Node Last Edited Time=Sep/04/2012 13:09:58
#Sta/Elev= 6 
    -200   97.54       0   97.54       0  93.183     100  93.183     100   97.54
     300   97.54
#Mann= 3 , 0 , 0 
    -200     .04       0       0     .04       0     100     .04       0
Bank Sta=0,100
XS Rating Curve= 0 ,0
XS HTab Starting El and Incr=93.33,0.1, 100 
Exp/Cntr=0.3,0.1

Type RM Length L Ch R = 1 ,95850.* ,100,100,100
Node Last Edited Time=Sep/04/2012 13:09:58
#Sta/Elev= 6 
    -200   97.48       0   97.48       0  93.123     100  93.123     100   97.48
     300   97.48
#Mann= 3 , 0 , 0 
    -200     .04       0       0     .04       0     100     .04       0
Bank Sta=0,100
XS Rating Curve= 0 ,0
XS HTab Starting El and Incr=93.27,0.1, 100 
Exp/Cntr=0.3,0.1

Type RM Length L Ch R = 1 ,95750.* ,100,100,100
Node Last Edited Time=Sep/04/2012 13:09:58
#Sta/Elev= 6 
    -200   97.42       0   97.42       0  93.063     100  93.063     100   97.42
     300   97.42
#Mann= 3 , 0 , 0 
    -200     .04       0       0     .04       0     100     .04       0
Bank Sta=0,100
XS Rating Curve= 0 ,0
XS HTab Starting El and Incr=93.21,0.1, 100 
Exp/Cntr=0.3,0.1

Type RM Length L Ch R = 1 ,95650.* ,100,100,100
Node Last Edited Time=Sep/04/2012 13:09:58
#Sta/Elev= 6 
    -200   97.36       0   97.36       0  93.003     100  93.003     100   97.36
     300   97.36
#Mann= 3 , 0 , 0 
    -200     .04       0       0     .04       0     100     .04       0
Bank Sta=0,100
XS Rating Curve= 0 ,0
XS HTab Starting El and Incr=93.15,0.1, 100 
Exp/Cntr=0.3,0.1

Type RM Length L Ch R = 1 ,95550.* ,100,100,100
Node Last Edited Time=Sep/04/2012 13:09:58
#Sta/Elev= 6 
    -200    97.3       0    97.3       0  92.943     100  92.943     100    97.3
     300    97.3
#Mann= 3 , 0 , 0 
    -200     .04       0       0     .04       0     100     .04       0
Bank Sta=0,100
XS Rating Curve= 0 ,0
XS HTab Starting El and Incr=93.09,0.1, 100 
Exp/Cntr=0.3,0.1

Type RM Length L Ch R = 1 ,95450.* ,100,100,100
Node Last Edited Time=Sep/04/2012 13:09:58
#Sta/Elev= 6 
    -200   97.24       0   97.24       0  92.883     100  92.883     100   97.24
     300   97.24
#Mann= 3 , 0 , 0 
    -200     .04       0       0     .04       0     100     .04       0
Bank Sta=0,100
XS Rating Curve= 0 ,0
XS HTab Starting El and Incr=93.03,0.1, 100 
Exp/Cntr=0.3,0.1

Type RM Length L Ch R = 1 ,95350.* ,100,100,100
Node Last Edited Time=Sep/04/2012 13:09:58
#Sta/Elev= 6 
    -200   97.18       0   97.18       0  92.823     100  92.823     100   97.18
     300   97.18
#Mann= 3 , 0 , 0 
    -200     .04       0       0     .04       0     100     .04       0
Bank Sta=0,100
XS Rating Curve= 0 ,0
XS HTab Starting El and Incr=92.97,0.1, 100 
Exp/Cntr=0.3,0.1

Type RM Length L Ch R = 1 ,95250.* ,100,100,100
Node Last Edited Time=Sep/04/2012 13:09:58
#Sta/Elev= 6 
    -200   97.12       0   97.12       0  92.763     100  92.763     100   97.12
     300   97.12
#Mann= 3 , 0 , 0 
    -200     .04       0       0     .04       0     100     .04       0
Bank Sta=0,100
XS Rating Curve= 0 ,0
XS HTab Starting El and Incr=92.91,0.1, 100 
Exp/Cntr=0.3,0.1

Type RM Length L Ch R = 1 ,95150.* ,100,100,100
Node Last Edited Time=Sep/04/2012 13:09:58
#Sta/Elev= 6 
    -200   97.06       0   97.06       0  92.703     100  92.703     100   97.06
     300   97.06
#Mann= 3 , 0 , 0 
    -200     .04       0       0     .04       0     100     .04       0
Bank Sta=0,100
XS Rating Curve= 0 ,0
XS HTab Starting El and Incr=92.85,0.1, 100 
Exp/Cntr=0.3,0.1

Type RM Length L Ch R = 1 ,95050.* ,100,100,100
Node Last Edited Time=Sep/04/2012 13:09:58
#Sta/Elev= 6 
    -200      97       0      97       0  92.643     100  92.643     100      97
     300      97
#Mann= 3 , 0 , 0 
    -200     .04       0       0     .04       0     100     .04       0
Bank Sta=0,100
XS Rating Curve= 0 ,0
XS HTab Starting El and Incr=92.79,0.1, 100 
Exp/Cntr=0.3,0.1

Type RM Length L Ch R = 1 ,94950.* ,100,100,100
Node Last Edited Time=Sep/04/2012 13:09:58
#Sta/Elev= 6 
    -200   96.94       0   96.94       0  92.583     100  92.583     100   96.94
     300   96.94
#Mann= 3 , 0 , 0 
    -200     .04       0       0     .04       0     100     .04       0
Bank Sta=0,100
XS Rating Curve= 0 ,0
XS HTab Starting El and Incr=92.73,0.1, 100 
Exp/Cntr=0.3,0.1

Type RM Length L Ch R = 1 ,94850.* ,100,100,100
Node Last Edited Time=Sep/04/2012 13:09:58
#Sta/Elev= 6 
    -200   96.88       0   96.88       0  92.523     100  92.523     100   96.88
     300   96.88
#Mann= 3 , 0 , 0 
    -200     .04       0       0     .04       0     100     .04       0
Bank Sta=0,100
XS Rating Curve= 0 ,0
XS HTab Starting El and Incr=92.67,0.1, 100 
Exp/Cntr=0.3,0.1

Type RM Length L Ch R = 1 ,94750.* ,100,100,100
Node Last Edited Time=Sep/04/2012 13:09:58
#Sta/Elev= 6 
    -200   96.82       0   96.82       0  92.463     100  92.463     100   96.82
     300   96.82
#Mann= 3 , 0 , 0 
    -200     .04       0       0     .04       0     100     .04       0
Bank Sta=0,100
XS Rating Curve= 0 ,0
XS HTab Starting El and Incr=92.61,0.1, 100 
Exp/Cntr=0.3,0.1

Type RM Length L Ch R = 1 ,94650.* ,100,100,100
Node Last Edited Time=Sep/04/2012 13:09:58
#Sta/Elev= 6 
    -200   96.76       0   96.76       0  92.403     100  92.403     100   96.76
     300   96.76
#Mann= 3 , 0 , 0 
    -200     .04       0       0     .04       0     100     .04       0
Bank Sta=0,100
XS Rating Curve= 0 ,0
XS HTab Starting El and Incr=92.55,0.1, 100 
Exp/Cntr=0.3,0.1

Type RM Length L Ch R = 1 ,94550.* ,100,100,100
Node Last Edited Time=Sep/04/2012 13:09:58
#Sta/Elev= 6 
    -200    96.7       0    96.7       0  92.343     100  92.343     100    96.7
     300    96.7
#Mann= 3 , 0 , 0 
    -200     .04       0       0     .04       0     100     .04       0
Bank Sta=0,100
XS Rating Curve= 0 ,0
XS HTab Starting El and Incr=92.49,0.1, 100 
Exp/Cntr=0.3,0.1

Type RM Length L Ch R = 1 ,94450.* ,100,100,100
Node Last Edited Time=Sep/04/2012 13:09:58
#Sta/Elev= 6 
    -200   96.64       0   96.64       0  92.283     100  92.283     100   96.64
     300   96.64
#Mann= 3 , 0 , 0 
    -200     .04       0       0     .04       0     100     .04       0
Bank Sta=0,100
XS Rating Curve= 0 ,0
XS HTab Starting El and Incr=92.43,0.1, 100 
Exp/Cntr=0.3,0.1

Type RM Length L Ch R = 1 ,94350.* ,100,100,100
Node Last Edited Time=Sep/04/2012 13:09:58
#Sta/Elev= 6 
    -200   96.58       0   96.58       0  92.223     100  92.223     100   96.58
     300   96.58
#Mann= 3 , 0 , 0 
    -200     .04       0       0     .04       0     100     .04       0
Bank Sta=0,100
XS Rating Curve= 0 ,0
XS HTab Starting El and Incr=92.37,0.1, 100 
Exp/Cntr=0.3,0.1

Type RM Length L Ch R = 1 ,94250.* ,100,100,100
Node Last Edited Time=Sep/04/2012 13:09:58
#Sta/Elev= 6 
    -200   96.52       0   96.52       0  92.163     100  92.163     100   96.52
     300   96.52
#Mann= 3 , 0 , 0 
    -200     .04       0       0     .04       0     100     .04       0
Bank Sta=0,100
XS Rating Curve= 0 ,0
XS HTab Starting El and Incr=92.31,0.1, 100 
Exp/Cntr=0.3,0.1

Type RM Length L Ch R = 1 ,94150.* ,100,100,100
Node Last Edited Time=Sep/04/2012 13:09:58
#Sta/Elev= 6 
    -200   96.46       0   96.46       0  92.103     100  92.103     100   96.46
     300   96.46
#Mann= 3 , 0 , 0 
    -200     .04       0       0     .04       0     100     .04       0
Bank Sta=0,100
XS Rating Curve= 0 ,0
XS HTab Starting El and Incr=92.25,0.1, 100 
Exp/Cntr=0.3,0.1

Type RM Length L Ch R = 1 ,94050.* ,100,100,100
Node Last Edited Time=Sep/04/2012 13:09:58
#Sta/Elev= 6 
    -200    96.4       0    96.4       0  92.043     100  92.043     100    96.4
     300    96.4
#Mann= 3 , 0 , 0 
    -200     .04       0       0     .04       0     100     .04       0
Bank Sta=0,100
XS Rating Curve= 0 ,0
XS HTab Starting El and Incr=92.19,0.1, 100 
Exp/Cntr=0.3,0.1

Type RM Length L Ch R = 1 ,93950.* ,100,100,100
Node Last Edited Time=Sep/04/2012 13:09:58
#Sta/Elev= 6 
    -200   96.34       0   96.34       0  91.983     100  91.983     100   96.34
     300   96.34
#Mann= 3 , 0 , 0 
    -200     .04       0       0     .04       0     100     .04       0
Bank Sta=0,100
XS Rating Curve= 0 ,0
XS HTab Starting El and Incr=92.13,0.1, 100 
Exp/Cntr=0.3,0.1

Type RM Length L Ch R = 1 ,93850.* ,100,100,100
Node Last Edited Time=Sep/04/2012 13:09:58
#Sta/Elev= 6 
    -200   96.28       0   96.28       0  91.923     100  91.923     100   96.28
     300   96.28
#Mann= 3 , 0 , 0 
    -200     .04       0       0     .04       0     100     .04       0
Bank Sta=0,100
XS Rating Curve= 0 ,0
XS HTab Starting El and Incr=92.07,0.1, 100 
Exp/Cntr=0.3,0.1

Type RM Length L Ch R = 1 ,93750.* ,100,100,100
Node Last Edited Time=Sep/04/2012 13:09:58
#Sta/Elev= 6 
    -200   96.22       0   96.22       0  91.863     100  91.863     100   96.22
     300   96.22
#Mann= 3 , 0 , 0 
    -200     .04       0       0     .04       0     100     .04       0
Bank Sta=0,100
XS Rating Curve= 0 ,0
XS HTab Starting El and Incr=92.01,0.1, 100 
Exp/Cntr=0.3,0.1

Type RM Length L Ch R = 1 ,93650.* ,100,100,100
Node Last Edited Time=Sep/04/2012 13:09:58
#Sta/Elev= 6 
    -200   96.16       0   96.16       0  91.803     100  91.803     100   96.16
     300   96.16
#Mann= 3 , 0 , 0 
    -200     .04       0       0     .04       0     100     .04       0
Bank Sta=0,100
XS Rating Curve= 0 ,0
XS HTab Starting El and Incr=91.95,0.1, 100 
Exp/Cntr=0.3,0.1

Type RM Length L Ch R = 1 ,93550.* ,100,100,100
Node Last Edited Time=Sep/04/2012 13:09:58
#Sta/Elev= 6 
    -200    96.1       0    96.1       0  91.743     100  91.743     100    96.1
     300    96.1
#Mann= 3 , 0 , 0 
    -200     .04       0       0     .04       0     100     .04       0
Bank Sta=0,100
XS Rating Curve= 0 ,0
XS HTab Starting El and Incr=91.89,0.1, 100 
Exp/Cntr=0.3,0.1

Type RM Length L Ch R = 1 ,93450.* ,100,100,100
Node Last Edited Time=Sep/04/2012 13:09:58
#Sta/Elev= 6 
    -200   96.04       0   96.04       0  91.683     100  91.683     100   96.04
     300   96.04
#Mann= 3 , 0 , 0 
    -200     .04       0       0     .04       0     100     .04       0
Bank Sta=0,100
XS Rating Curve= 0 ,0
XS HTab Starting El and Incr=91.83,0.1, 100 
Exp/Cntr=0.3,0.1

Type RM Length L Ch R = 1 ,93350.* ,100,100,100
Node Last Edited Time=Sep/04/2012 13:09:58
#Sta/Elev= 6 
    -200   95.98       0   95.98       0  91.623     100  91.623     100   95.98
     300   95.98
#Mann= 3 , 0 , 0 
    -200     .04       0       0     .04       0     100     .04       0
Bank Sta=0,100
XS Rating Curve= 0 ,0
XS HTab Starting El and Incr=91.77,0.1, 100 
Exp/Cntr=0.3,0.1

Type RM Length L Ch R = 1 ,93250.* ,100,100,100
Node Last Edited Time=Sep/04/2012 13:09:58
#Sta/Elev= 6 
    -200   95.92       0   95.92       0  91.563     100  91.563     100   95.92
     300   95.92
#Mann= 3 , 0 , 0 
    -200     .04       0       0     .04       0     100     .04       0
Bank Sta=0,100
XS Rating Curve= 0 ,0
XS HTab Starting El and Incr=91.71,0.1, 100 
Exp/Cntr=0.3,0.1

Type RM Length L Ch R = 1 ,93150.* ,100,100,100
Node Last Edited Time=Sep/04/2012 13:09:58
#Sta/Elev= 6 
    -200   95.86       0   95.86       0  91.503     100  91.503     100   95.86
     300   95.86
#Mann= 3 , 0 , 0 
    -200     .04       0       0     .04       0     100     .04       0
Bank Sta=0,100
XS Rating Curve= 0 ,0
XS HTab Starting El and Incr=91.65,0.1, 100 
Exp/Cntr=0.3,0.1

Type RM Length L Ch R = 1 ,93050.* ,100,100,100
Node Last Edited Time=Sep/04/2012 13:09:58
#Sta/Elev= 6 
    -200    95.8       0    95.8       0  91.443     100  91.443     100    95.8
     300    95.8
#Mann= 3 , 0 , 0 
    -200     .04       0       0     .04       0     100     .04       0
Bank Sta=0,100
XS Rating Curve= 0 ,0
XS HTab Starting El and Incr=91.59,0.1, 100 
Exp/Cntr=0.3,0.1

Type RM Length L Ch R = 1 ,92950.* ,100,100,100
Node Last Edited Time=Sep/04/2012 13:09:58
#Sta/Elev= 6 
    -200   95.74       0   95.74       0  91.383     100  91.383     100   95.74
     300   95.74
#Mann= 3 , 0 , 0 
    -200     .04       0       0     .04       0     100     .04       0
Bank Sta=0,100
XS Rating Curve= 0 ,0
XS HTab Starting El and Incr=91.53,0.1, 100 
Exp/Cntr=0.3,0.1

Type RM Length L Ch R = 1 ,92850.* ,100,100,100
Node Last Edited Time=Sep/04/2012 13:09:58
#Sta/Elev= 6 
    -200   95.68       0   95.68       0  91.323     100  91.323     100   95.68
     300   95.68
#Mann= 3 , 0 , 0 
    -200     .04       0       0     .04       0     100     .04       0
Bank Sta=0,100
XS Rating Curve= 0 ,0
XS HTab Starting El and Incr=91.47,0.1, 100 
Exp/Cntr=0.3,0.1

Type RM Length L Ch R = 1 ,92750.* ,100,100,100
Node Last Edited Time=Sep/04/2012 13:09:58
#Sta/Elev= 6 
    -200   95.62       0   95.62       0  91.263     100  91.263     100   95.62
     300   95.62
#Mann= 3 , 0 , 0 
    -200     .04       0       0     .04       0     100     .04       0
Bank Sta=0,100
XS Rating Curve= 0 ,0
XS HTab Starting El and Incr=91.41,0.1, 100 
Exp/Cntr=0.3,0.1

Type RM Length L Ch R = 1 ,92650.* ,100,100,100
Node Last Edited Time=Sep/04/2012 13:09:58
#Sta/Elev= 6 
    -200   95.56       0   95.56       0  91.203     100  91.203     100   95.56
     300   95.56
#Mann= 3 , 0 , 0 
    -200     .04       0       0     .04       0     100     .04       0
Bank Sta=0,100
XS Rating Curve= 0 ,0
XS HTab Starting El and Incr=91.35,0.1, 100 
Exp/Cntr=0.3,0.1

Type RM Length L Ch R = 1 ,92550.* ,100,100,100
Node Last Edited Time=Sep/04/2012 13:09:58
#Sta/Elev= 6 
    -200    95.5       0    95.5       0  91.143     100  91.143     100    95.5
     300    95.5
#Mann= 3 , 0 , 0 
    -200     .04       0       0     .04       0     100     .04       0
Bank Sta=0,100
XS Rating Curve= 0 ,0
XS HTab Starting El and Incr=91.29,0.1, 100 
Exp/Cntr=0.3,0.1

Type RM Length L Ch R = 1 ,92450.* ,100,100,100
Node Last Edited Time=Sep/04/2012 13:09:58
#Sta/Elev= 6 
    -200   95.44       0   95.44       0  91.083     100  91.083     100   95.44
     300   95.44
#Mann= 3 , 0 , 0 
    -200     .04       0       0     .04       0     100     .04       0
Bank Sta=0,100
XS Rating Curve= 0 ,0
XS HTab Starting El and Incr=91.23,0.1, 100 
Exp/Cntr=0.3,0.1

Type RM Length L Ch R = 1 ,92350.* ,100,100,100
Node Last Edited Time=Sep/04/2012 13:09:58
#Sta/Elev= 6 
    -200   95.38       0   95.38       0  91.023     100  91.023     100   95.38
     300   95.38
#Mann= 3 , 0 , 0 
    -200     .04       0       0     .04       0     100     .04       0
Bank Sta=0,100
XS Rating Curve= 0 ,0
XS HTab Starting El and Incr=91.17,0.1, 100 
Exp/Cntr=0.3,0.1

Type RM Length L Ch R = 1 ,92250.* ,100,100,100
Node Last Edited Time=Sep/04/2012 13:09:58
#Sta/Elev= 6 