Flow Title=HD flow
Program Version=4.10
Use Restart= 0 
Boundary Location=test            ,test            ,99750   ,        ,                ,                ,                
Interval=15MIN
Flow Hydrograph= 6046 
  141.39  141.39  141.39  141.39  141.39  141.39  141.39  141.39  141.39  141.39
  141.39  141.39  141.39  141.39  141.39  141.39  141.39  141.39  141.39  141.39
  141.39  141.39  141.39  141.39  141.39  141.39  141.39  141.39  141.39  141.39
  141.39  141.39  141.39  141.39  141.39  141.39  141.39  141.39  141.39  141.39
  141.39  141.39  141.39  141.39  141.39  141.39  141.39  141.39  141.39  141.39
  141.39  141.39  141.39  141.39  141.39  141.39  141.39  141.39  141.39  141.39
  141.39  141.39  141.39  141.39  141.39  141.39  141.39  141.39  141.39  141.39
  141.39  141.39  141.39  141.39  141.39  141.39  141.39  141.39  141.39  141.39
  141.39  141.39  141.39  141.39  141.39  141.39  141.39  141.39  141.39  141.39
  141.39  141.39  141.39  141.39  141.39  141.39  141.39 141.948 143.064 144.183
 144.744 147.006 147.573 149.283 150.432  152.16 153.897 155.064  157.41 158.589
 159.774 162.156 163.356 165.162 165.765 167.586 169.419 170.646 170.031 171.879
 166.371 172.497 173.736 173.736 174.357 174.357 173.736 172.497 173.736 174.357
 173.736 172.497 176.229 173.736 170.646 169.419 173.115 172.497 171.879 172.497
 170.646 171.879 168.198 168.807 168.198 166.371  166.98 164.559 164.559 168.198
 163.956 163.356 162.756 161.559 160.962 163.356 162.156 160.368 160.962 159.774
  159.18 159.774 157.998 157.998 156.822 156.822 156.822 155.649 155.649 155.064
 153.897 154.482 153.897 153.318 152.739  152.16  152.16 151.005 151.005 150.432
 149.856 149.283 148.143 148.713 148.143 147.006 145.872 145.872 144.744 144.744
 144.183 143.622 143.064 142.503 141.948 140.835 140.283 139.731 139.179 138.627
 138.078 137.532 136.983  136.44 135.351 134.808 134.268 133.728 132.651 132.651
 132.117 131.046 130.515 129.984 129.453 128.925 127.869 127.344 127.344 126.294
 125.253 125.253 124.215 123.696 122.151 121.638 121.638 121.125 121.125 119.598
 116.073 118.584  118.08 117.576 115.077 115.575 116.574 115.077 115.575 115.077
 114.579 115.077 115.077 113.097 113.589 113.097 114.084 111.624 111.135 112.113
 110.649 110.649 110.649 111.624 109.677 110.649 109.194 110.163 109.194 108.228
 107.268 107.268 108.711 107.748 107.748 107.268 106.791 107.268 106.791 106.791
 107.268 106.791 106.314 107.268 105.837 106.314 106.314 105.837 106.314 106.314
 106.314 105.363 105.363 105.363 105.363 105.363 105.363 105.363 104.889 104.889
 104.889 104.889 104.889 104.418 104.418 104.418 104.418 103.947 103.947 103.476
 103.476 103.476 103.008 103.008  102.54  102.54 102.072 102.072 102.072 102.072
 101.607 101.142  100.68  100.68 100.218 100.218 100.218  99.756  99.297  99.297
  98.838  98.382  98.838  98.838  98.838  95.661  98.382  94.314  98.382  96.561
  96.111  97.014  97.014  96.111   97.47  96.561  92.538   97.47  96.561   93.87
   97.47  95.211  96.561   97.47  97.014  96.111   93.87  97.014  97.014  95.211
  93.423   97.47  95.211  96.111   93.87  96.111  96.111  96.561  95.661  96.561
  97.014  96.111  96.561  96.111  95.661  95.661  96.111  95.211  96.111  95.211
  95.211  95.211  95.661  95.211  95.211  94.761  94.761  94.761  95.661  95.211
  94.314  94.314  94.314  94.314  94.314   93.87   93.87   93.87   93.87  94.314
  94.314   93.87  92.979  93.423   93.87  93.423  93.423   93.87   93.87   93.87
   93.87   93.87  94.314  94.314  94.314  94.314  94.314  94.761  93.423   93.87
   93.87  94.761  92.538   93.87  92.979  92.979  92.538  92.979  92.097   93.87
  90.777  89.472  90.342  89.904  91.656  90.777  89.472  90.777  89.904  88.173
  88.605  88.173   86.46  86.886  85.608  85.608  85.608   86.46  84.342  85.185
  85.608  84.765  88.173  85.185  83.085  82.254  84.342  83.922  83.922  84.765
  84.342  83.922  84.342  84.765  84.342  83.922  84.342  84.342  84.342  84.765
  84.342  84.765  85.185  85.608  85.608  86.034  86.034  86.034  86.034   86.46
   86.46  86.886  87.315  87.315  87.744  87.744  87.744  88.173  88.173  88.173
  88.605  88.605  88.605  88.605  88.605  89.037  89.037  89.472  89.472  89.472
  89.472  89.037  89.037  89.472  89.472  89.472  89.472  89.037  89.472  89.472
  89.037  89.472  89.037  89.037  89.472  89.472  88.605  89.472  86.886  88.605
  90.342  87.744  88.173  86.886  87.315  89.037  85.608  86.886  89.037  87.744
  86.034  85.185  86.886  83.085  86.886  87.315  84.765  85.608  84.765  82.671
  85.608  85.185  84.765  85.185  84.342  85.185  83.505  83.922  84.342  83.505
  83.505  84.765  83.922  85.608  82.671  84.342  84.765  84.765  85.185  85.608
  85.608  83.922  84.342  83.922  84.342  84.342  84.342  84.342  84.342  84.765
  85.185  84.342  84.765  84.342  84.342  84.765  84.765  84.765  84.765  83.922
  84.342  84.765  84.765  84.765  84.765  84.765  85.608  85.185  85.608  85.608
  85.608  85.608  85.185  85.608  85.608  85.608  85.185  85.608  85.608  85.185
  85.608  84.765  84.765  85.185  83.922  84.342  83.505  83.505  83.085  84.342
  84.765  82.671  81.426   81.84  74.574  80.604  79.377  78.567  78.162  74.967
  78.972  79.377  76.557  76.557  76.158  74.967  74.967  71.079  76.557  73.788
  75.363  74.967  73.008  72.621  73.008  72.621  72.621  72.234  73.788  74.574
  73.008  72.234  70.695  73.008  69.552  69.933  71.463  70.695  70.695  71.079
  70.314  71.079  71.079  70.314  70.314  71.079  70.695  71.079  71.079  71.079
  71.079  71.463  71.079  71.463  71.463  71.847  72.234  72.234  72.234  72.234
  72.621  72.621  72.621  72.621  72.621  73.008  72.621  72.621  72.621  73.008
  72.621  72.621  73.788  73.788  73.398  74.181  74.181  74.181  74.181  73.398
  73.398  73.008  72.621  72.621  72.234  71.847  71.463  71.463  71.079  70.695
  70.695  70.314  69.933  69.933  69.933  67.671  69.552  69.552  68.421  69.552
  68.796  69.552  69.174  68.046  68.421  70.695  69.552  69.933  69.552  70.695
  71.079  70.314  70.314  68.796  71.463  69.174  70.314  69.933  71.463  69.174
  70.314  69.933  71.463  71.463  69.933  68.796  69.552  69.933  68.046  69.933
  68.046  69.933  67.299  68.421  69.552  68.796  69.174  68.046  69.552  69.174
  68.421  68.421  67.671  68.796  68.421  68.046  69.552  68.796  68.421  68.421
  68.421  68.421  68.421  68.421  68.421  68.046  68.796  68.421  68.796  68.421
  68.421  68.421  68.046  68.046  68.046  68.421  68.046  68.421  68.046  68.046
  68.046  68.421  68.046  68.046  68.046  68.046  68.046  68.046  68.046  68.046
  68.046  68.046  68.046  68.046  67.299  67.671  67.671  67.299  67.299  66.555
  66.555  66.555  66.555  66.555  66.186  65.817  65.817  65.817  65.451  65.451
  65.085  64.719  65.085  64.719  64.356  64.719  63.993  60.423  66.186  65.451
  64.719   63.27   62.55  66.186  63.993   63.63  65.451  65.451  65.085  65.451
  65.817  64.719   62.55   62.55  65.451  64.719  64.356  66.186  66.555  65.817
  65.451  65.451  65.085  65.451  65.451  65.451  65.085  65.451  65.817  65.817
  65.451  65.817  65.817  65.817  65.817  66.186  66.555  66.555  66.555  66.927
  66.927  66.555  67.299  66.927  66.927  66.927  67.299  67.299  67.299  67.299
  67.299  67.299  67.299  67.299  67.299  66.927  67.299  67.299  67.299  67.299
  67.299  67.299  67.299  67.299  67.299  67.299  66.927  67.299  66.927  66.927
  66.927  66.927  66.927  66.555  66.555  66.555  66.555  66.555  66.555  66.186
  66.555  66.186  66.555  65.817  66.555  64.719  65.451  66.186   62.55  66.186
   63.63  66.927  65.085  65.451  64.719  67.299  65.085  65.451  65.085  65.085
   63.63  65.451  61.482  66.186  64.719  65.451  65.451  65.451  64.356  61.482
  64.719   62.55  64.356   62.55   63.63  64.719  64.719   63.63   63.27   63.63
  65.085   63.63   62.55   62.91   62.55   62.91   63.63   63.27   63.27  62.193
   63.63   63.27   63.27   63.63   63.63   62.91   63.63  63.993   63.63   63.27
   63.27   63.27   63.63  63.993   63.63  63.993  63.993  63.993  63.993  63.993
  63.993  63.993  63.993  63.993   63.63  63.993  63.993  63.993  63.993  63.993
   63.63  63.993   63.63   63.63   63.63   63.27   63.27   63.27   62.91   62.91
   62.91   62.91   62.55  62.193  62.193  61.839  62.193  62.193  61.128  60.774
  60.774  61.482  60.423  60.774  61.128  60.774  61.482  60.774  61.482  59.028
  61.128  60.774  61.128  60.423  59.373  61.128  59.724  59.724  59.724  60.423
  59.028  61.128  59.028  60.072  60.072  58.335   58.68  60.072  58.335  58.335
  58.335  59.373   57.99  60.072  60.072  58.335  59.028  59.028  58.335  59.373
  58.335  58.335  58.335   57.99   57.99  58.335   58.68   57.99   58.68  59.028
   58.68  59.373  59.028  59.028  59.028  59.373  59.373  59.373  59.373  59.373
  59.724  59.724  59.724  59.724  59.724  59.373  59.373  59.724  59.724  59.373
  59.373  59.373  59.373  59.373  59.373  59.373  59.028  59.028  59.028   58.68
   58.68   58.68   58.68  58.335   58.68   58.68   58.68   58.68   58.68  58.335
   58.68   57.99  58.335   57.99   58.68  56.964   57.99   58.68  57.648   57.99
   58.68  57.648  54.276  59.373  59.028   58.68  58.335  57.648  56.964  56.964
  56.286  56.964  52.308   63.27  55.278  56.625  58.335  54.276  56.625  57.306
  56.964  56.964  55.278  57.648  55.611  56.964  56.964  55.278  53.616   58.68
   55.95  56.625  56.964  56.625  56.964  56.964  56.964  57.306  57.306  57.648
   55.95  57.648   57.99  54.276  59.028  57.306   57.99  58.335  58.335   58.68
   58.68   58.68  59.028  59.028  59.373  59.373  59.373  59.373  59.724  59.724
  59.724  60.072  60.072  59.724  60.072  60.072  60.072  59.724  59.724  60.072
  60.072  59.724  60.072  59.724  59.724  60.072  59.724  60.072  59.724  59.724
  59.724  59.724  59.724  59.724  59.724  56.964  59.724  59.028  59.724  59.373
  59.028  59.373  59.373  59.724   58.68  59.028  59.724  60.072   57.99   57.99
  59.724   58.68  55.611  60.423  56.286  61.128  59.724  60.072  60.072  59.373
  57.306  54.609  59.724  60.423  59.028  60.423  56.964  61.128   58.68  57.648
  59.724  60.072  60.072  59.724  58.335   58.68  59.028  59.028   58.68  59.373
  58.335  58.335   57.99  58.335  58.335  59.028  59.028  59.028  59.373  59.724
  59.373  59.724  59.724  59.724  59.724  60.072  60.072  60.072  60.423  60.072
  60.423  60.774  60.423  60.774  61.128  61.128  61.128  61.482  61.482  61.839
  61.839  61.839  61.839  61.839  62.193  62.193  62.193  61.839  62.193  62.193
   62.55  62.193   62.55   62.55   62.91   62.91   62.91   62.55   62.55   62.91
   62.55   62.55  61.482   63.27   63.27   62.91   63.27   62.91   62.55   63.63
   63.27   63.63   62.55   62.55   62.91   63.63   62.91  65.085   63.27   63.63
  60.774  65.451  60.423   62.91  60.774   62.55  62.193   62.91   62.55  61.482
  60.774  61.128  56.964  61.482  59.724  56.286  60.774  60.072  61.482  61.128
  60.774  60.774  62.193  61.482  61.482  61.482  61.482  61.839  61.839  62.193
  62.193  62.193   62.55  61.839   62.55   62.55   62.55   62.91   63.27   62.91
   62.91   63.27   63.27   63.27   63.27   63.63   63.63   63.63  63.993  63.993
  63.993  63.993  63.993  64.356  64.356  64.356  64.356  64.719  64.719  65.085
  65.085  65.085  65.451  65.451  65.451  65.451  65.817  65.817  65.817  65.817
  65.817  65.817  65.817  65.817  66.186  65.817  65.817  66.186  65.451  66.927
  66.555  66.555  65.085  66.186  67.299  66.186  66.927  66.927  67.299  64.719
  67.671   63.63  65.451  64.356  68.046  67.299  68.421  68.796  68.796  68.796
  67.299  69.552  70.314  68.796  70.314  70.314  70.314  71.079  71.463  72.105
   72.75  73.398  74.052  74.706  75.363  79.785  74.967  76.956  77.355  77.355
  78.162  78.162  78.972  80.604  82.671  83.922  85.185  89.904  91.656  95.211
  98.382 101.142 104.418 109.677 112.113 116.073 120.105  123.18 125.253 127.869
 130.515 133.191 134.808  136.44 138.627 140.835  141.39 142.503 143.064 144.183
 144.744 145.308 146.439 146.439 147.573 148.143 148.143 148.713 149.856 150.432
 150.432 151.581 153.318 154.482 155.649  157.41  159.18  159.18 161.559 162.756
 163.956 164.559 166.371 169.419 168.807 169.419 171.261 174.357 176.229 174.981
 176.229  178.74 181.908 183.822 187.035 190.488 190.488 194.052 196.548 199.404
 200.832 203.334 208.701 213.357 218.376  219.81 222.324 226.635 229.152 232.032
 235.632 237.795 241.761 243.204 247.533 250.785 255.849 259.104 266.712 269.976
 273.606 276.873  279.78 283.416 287.052 291.786 295.794 298.347 303.453 307.104
 310.392 312.219 315.876 319.167 321.729 325.392 327.957 333.456 337.125 340.428
 344.835 347.406  351.45 355.131 358.074 362.493 367.653 372.447  384.63 412.764
 433.557 439.881 445.092 448.815 451.794 453.657 458.505 462.606 465.966 468.579
 472.311 476.046 479.784 485.019 489.879 494.745 499.989 504.483 509.358 515.733
 522.111  528.12 533.004 538.644 543.534 548.235  551.76 555.762 559.236 562.692
 566.124 569.535 571.959 575.094 578.928 581.787 584.865 588.399 591.444 594.705
 597.486 600.711 603.921 606.885 609.381 612.768 615.687 618.594 623.922 634.437
 643.065 649.458 653.472 657.042 659.553 662.673 664.746 667.224 668.871 671.334
 672.768 675.624 677.655 679.275 681.096  683.31  685.32 686.322 687.921 689.916
 691.704 693.687 695.469 697.047 698.229 700.191  701.76 703.518 704.493 707.409
 709.155   710.7 712.437 714.168 716.085 717.999 719.718 722.001  723.33 724.845
 727.113 728.808 730.875 732.561 734.244 735.735 737.781 744.069 751.581 756.846
 760.998 763.512  765.84 767.625 769.761  771.18 772.776 774.369 775.428 777.015
 778.071  778.95 780.879 781.929 782.454 784.026  785.07  785.94 786.636 787.854
 788.547 789.588 790.107 790.971 791.835  792.87 793.731 794.076 794.763 795.453
 795.966 796.827 797.682 798.369 798.882 799.737 799.908  800.76 801.102 801.783
 802.296 802.635 803.316 803.658 803.658 804.336 804.336 806.034 808.743 812.112
 814.128 815.136 815.973 816.474 817.476 817.476 817.644 817.812 817.644 817.311
 817.476 817.143 816.975 816.474 816.306 816.138 815.301 815.301 814.632 814.296
  813.12  813.12 812.112 811.608 810.429 810.093 809.247 808.236 807.051 806.034
 804.846 803.658 802.977 801.615 800.421 799.395 797.853  796.14 795.279 793.905
 792.354 790.626  789.24 787.332 786.114 784.548 786.984 789.414 790.452 790.452
 789.933 788.547 787.506 785.766 784.026 781.755 780.003 777.192 775.605  773.13
 770.826 768.336 766.197 763.692 761.715 758.475 756.123 753.582 750.669 748.293
 745.725 742.596 740.007 736.479 733.308   730.5 727.113 725.034 721.431 718.764
 716.085 712.821 710.121 707.214 704.103 700.779 697.638 694.677 691.704  688.92
  685.92 682.506 679.479 677.046   674.4 670.926 667.224 666.192 666.606 665.574
 663.504 661.635 660.387 657.252 654.735 651.783 648.819 646.056 643.065 640.059
 636.606 633.351  631.17 627.885 624.582 621.927 618.816 616.359 612.543 609.606
 606.885 604.149 601.401 598.407 595.401  593.31 590.976 588.399 586.989 585.102
 583.209 581.787 581.073 580.359 579.642 578.448 578.448 578.688 578.448 578.448
 578.688 579.165 579.882 580.596 580.833 582.024 587.223 591.444 594.936 596.559
 597.486 597.717 598.407 598.407 598.407 598.407 598.179 597.948 597.717 597.252
 596.559 596.559 595.863 595.863 594.936 594.705 594.006 593.775 593.076 592.611
 592.377 591.912 591.678 590.508  590.04 589.572 589.104 588.633 587.223 586.518
  585.81  585.81 584.394 583.446 582.498 581.073 579.882 579.642 577.731 577.494
 576.774 575.094 573.648 571.476 571.476 569.535 568.077 567.102 566.613 564.165
 561.954 559.731 558.246 556.011 554.013 552.012  549.75 547.296 544.662   540.9
 537.141 534.132 530.751 528.495 524.742 522.111 518.358 514.608 511.983 508.608
 505.233 502.611 499.989 497.793 495.153 490.737 487.653 485.016 482.379 480.627
 477.546 475.353 473.604 472.743 472.323 471.903 471.927  473.28 476.409  478.65
 484.002 493.797 503.604 518.322 537.525 557.061 573.645 588.912 603.237 618.813
 633.474 647.796 662.538 675.741 689.871 703.473 715.671 727.659 740.769 750.396
 761.181  771.18 781.254 790.581 797.964 804.675 812.727 818.322  825.06 831.936
  836.43 841.095 847.263 850.722 856.254 859.299 863.835 866.667  869.49 873.231
 876.219 877.533 879.768 881.814 883.491 885.528 888.108 888.495 889.974  891.27
  892.02 894.219 894.423  895.53 896.097 897.204 897.228 897.429 898.896   899.1
 899.481 899.505 898.989  897.93 897.591 897.615 897.636 897.117 896.055 895.899
  895.56 893.226 892.341 891.636 890.751 889.131 887.328 885.888 884.262 882.447
 880.998 879.546 877.167 875.151 873.132 871.293 868.704 865.917 863.499 860.505
 858.069 855.816 852.222 849.378 845.757 842.889 839.625 836.349 833.253 829.947
 826.431 822.108 819.156  815.19  812.01 809.016 804.999 801.573 797.721 794.259
 789.957 786.669 782.529 778.578 774.396  770.19  766.17 761.703 757.422  753.33
 749.217 746.178   740.7 737.844 733.638 729.186 724.251 717.912 714.273 708.765
 704.493 700.389 694.875 690.114  685.32 680.691 676.233  672.36 668.049 663.918
 660.594 656.415 652.629 649.032 645.417 640.917  638.55 634.872 631.605 627.666
 624.804 621.708 618.147  614.79 612.093 609.153 605.973 603.006  599.79  596.79
 594.471 591.912  588.87 586.281 583.683 580.833 578.211 575.094 572.925 570.507
 567.831 565.881 562.938 560.721 558.246 555.762 553.764 551.259 548.991 546.543
 543.534 540.525 537.141 533.757 530.751  527.37 524.364 520.986 518.358 515.733
 513.108 509.358 506.358 503.736 500.736 497.367 493.998 491.751 488.757 486.141
 483.522 480.906  477.54 474.552 471.939  470.07 467.085 464.472 461.487 459.624
 457.386 455.148 452.913 450.678 448.815  446.58 444.717 442.113 440.253 438.765
 436.161 433.929 432.069 430.212 429.096 426.867 425.382 422.781 421.296  419.07
 417.957 415.731 414.246 413.133 411.651 409.425 408.315 406.089 406.461 403.866
 403.128 401.274 399.795 398.682 397.572 395.352 394.242 392.763 390.543 389.805
 388.695 387.216 385.737 383.889 382.782 382.044 379.458 377.982 376.875 375.399
 373.923 372.816 371.709 370.602 369.495 368.391 366.915 366.546 365.808 365.073
 364.335   363.6 362.862 362.124 361.389 360.651 360.651 360.285 359.547 359.178
 359.178 358.812 358.074 358.443 357.705 358.074 358.074 358.074 357.339 357.339
 357.339 357.339  356.97 357.339 357.339 357.339 357.705 357.339 357.705 358.074
 358.074 358.812 358.812 359.547 359.916 360.651 361.389 362.124 362.493 363.231
 365.808 366.546 369.126 370.233  371.34 373.185 376.137 377.613 379.089 380.196
 381.675 382.782 383.889 385.368 386.478 387.216 390.912 391.284 392.763 394.242
 395.352 394.983 396.831 397.572 397.944 400.905 402.756 403.497 404.238 404.979
 405.348 406.461 407.574 407.574 408.684 409.056 409.425 410.166 409.797 410.538
 410.166 409.797 410.166  410.91 410.166 410.538  410.91  410.91 410.538  410.91
  410.91 410.538 411.279  410.91  410.91 410.166 409.797 409.425 409.056 409.056
 408.684 407.943 407.202 406.461  405.72 404.607 403.497 402.756 400.905 400.164
 398.682 397.203 395.721 393.873 392.763 390.912 389.433 387.585 385.737  384.63
 382.044 380.196  378.72 376.875  375.03 373.185  371.34 369.864 368.022 366.177
 364.335 362.124 360.285 358.443  356.97 354.762  351.45 349.245  347.04 345.201
  342.63 341.163 339.693 337.857 335.655 333.822 332.355 330.888  329.79 328.323
 326.856 325.758 321.363 319.533 318.069 316.608 316.242 314.412 312.951 311.124
 310.758 310.392 309.297 308.565 307.836 306.738 305.643 305.277 304.182 304.182
 302.724 302.358 301.629 301.263   300.9 300.168 300.168 299.805 299.439 299.076
  298.71 298.347 298.347 297.981 297.618 297.252 296.523 296.157 296.157 295.794
 295.428 295.428 295.428 294.702 294.702 293.973 294.336 293.607 293.973 293.244
 293.244 293.607 293.607 293.244 293.973 293.607 293.973 294.702 295.065 295.065
 296.157 296.523 297.618  298.71 299.076 299.805   300.9 302.358 304.914 307.104
  309.66 312.951 316.974 319.533 323.193  326.49 331.623 337.125 342.264 347.775
 353.658 361.758  371.34 379.458 390.543 400.905 411.279 422.412 434.673 447.696
 460.743 476.793 496.242 513.483 531.879 549.498 562.446 575.574 588.165 600.942
 614.343 626.787 639.198 651.363  663.09   674.4 686.121 697.638  708.96 719.907
 730.875 741.303 751.764 762.435 772.422 782.454 791.661 801.102 809.754 818.646
 827.274 835.482  843.12 851.811 858.825 865.938 874.551 881.688 888.918 895.326
 901.839 908.754 914.871 920.649 926.247 931.659 936.609 941.385 946.278 950.289
 955.137  959.25 962.502 966.162 968.967 972.324 975.252  978.03 980.385 982.599
 984.252 987.144 989.202 992.652 995.4661000.0411005.3271007.4421012.7341015.206
1019.0911021.2121025.1031027.5811031.4751033.9561035.7261038.9181041.7561045.308
1047.4381050.6361052.4151055.9731058.4631061.3131064.5171066.6561069.5091070.937
1074.5041076.6491078.7911082.0071083.4381085.2261087.3711088.8051090.9531092.027
1094.5321095.966  1097.41100.6281101.7021103.1391104.2161107.4441107.8041109.601
1112.1151113.1951117.1491118.2291121.1061121.1061123.6261126.1491127.5891129.752
1130.8321131.9151131.9151134.0781136.2441137.6871140.2131141.2961143.4651143.102
1146.354 1147.441145.9941148.1631149.6091150.3321152.8641154.6731155.0361155.399
1157.5711155.7591158.657 1159.021161.5551161.1921161.9181165.1791166.6311169.532
1172.4361173.525 1175.341177.521 1181.521184.0641186.2481189.158  1192.81196.079
1203.006 1207.021212.1321217.6161222.7371228.2271232.9911237.7581243.2631247.304
1250.9761255.7581258.7011263.1171266.0631268.2741271.5921273.8061276.3891279.341
1281.9241284.1411287.4651287.8371290.4231292.6431293.3811294.1221296.7111297.083
1300.0441300.7851301.8951302.6361303.0081305.231  1305.6  1305.61308.1951308.936
1309.3081309.3081311.5311310.4181311.9031312.6441312.2751313.7571314.1291313.757
1315.6141316.7271317.4681318.9531318.953 1320.811320.4381321.1821321.9261322.298
1323.4111323.7831324.8961323.7831324.155 1325.641325.268 1325.641326.3841326.756
1327.1281327.1281326.756  1327.51328.6161328.2441328.9881327.872  1327.51327.872
1328.2441327.1281328.6161328.6161328.6161327.8721327.1281327.1281327.8721327.128
1327.1281326.7561327.1281326.0121326.3841324.8961324.8961324.1551324.1551323.783
1323.4111323.0391322.6671321.9261322.2981321.5541321.182 1320.811318.9531318.953
1319.3251318.2121317.4681316.7271316.7271316.3551313.7571315.6141313.7571313.016
1313.3881312.275 1310.791310.4181309.6771308.9361307.8231307.4541307.082  1305.6
1304.118 1304.491301.5261301.5261301.1541300.4131299.6751298.1931296.7111295.973
1294.4911292.2711291.5331290.4231288.5751288.2061286.3581284.8791283.7721283.031
1281.1861280.4481277.1271277.1271275.2821274.1751273.437 1272.331269.3811269.012
1267.539 1267.171265.3281262.7481262.0131261.2781258.7011257.5971255.3891253.919
 1253.55 1252.081250.2411248.771 1247.671245.4651243.6291242.5281241.0611238.859
1238.1241237.392 1235.191234.0921232.6251230.426 1230.061227.4951226.0311225.299
1223.1031220.9071220.5411218.348 1217.251214.6911213.9591211.0371210.6711208.847
1206.291 1204.831203.7351201.9111200.4531200.0871197.5371197.1711194.2551192.434
 1190.251188.4291187.3371185.8821183.338 1181.521179.3391176.7951176.0691173.162
1171.3471169.895 1167.721164.4561162.2811161.1921158.6571158.2941155.7591152.864
1152.1411148.8861146.7171145.2711141.6591139.853 1139.491137.3241134.7981132.275
1129.7521127.9491125.7861123.6261120.7461118.5891114.2721113.1951111.3981109.241
 1105.291103.8561101.3451098.8341096.3261093.4581090.9531089.162 1085.941083.795
1085.5831082.3641079.8621077.0061075.5751073.4331070.937 1067.371064.5171062.381
1060.2421057.3951054.5481051.3471050.2821046.3731044.9511042.113 1038.211035.726
1033.2481031.1211028.2891025.8111022.9791020.5041018.3861015.2061013.4391009.557
1007.0881003.9171002.8611000.041 997.227  994.41  991.53   990.3 989.202 988.242
 987.282 986.181 984.666 983.565 982.323  980.94 979.971 978.447 977.058 975.948
 974.973 973.581 972.045 970.926 969.528 968.268 966.864 965.178 964.194 962.502
 961.089 959.535 958.119 956.982 955.704 954.141  952.86 951.288  949.86 948.717
 947.139  945.99 944.121 942.681 941.529 940.227 938.493 937.332 935.736 934.428
 933.117 931.077 929.616  928.59 926.832 925.512 923.748 922.125 920.799  919.32
 917.988 917.247 915.465 914.277 912.786 913.233 912.189 911.145 910.398 909.054
 908.304 907.104 905.904 905.154 904.101 903.498 902.292 901.386  900.63 900.027
 898.968 898.362 897.453 896.694 896.085  894.87 894.414 893.805 893.196 893.196
 892.737 892.737 892.281 891.669 891.516  891.21 890.601 889.989 889.224 889.071
 888.762 887.844 887.538 887.076 886.308 885.693 885.234 884.772 884.154 883.539
  883.23 882.306 881.997 881.223 880.605  880.14 879.675 879.522 879.213 878.436
 877.971 877.662 877.194 876.729 876.108 875.796 875.175 874.707 874.083 873.927
 873.771 872.835 872.835 872.367 872.211 872.055 871.587 871.431 871.431 871.587
 871.743 871.587 871.743 871.899 872.055 872.211 871.899 872.367 872.211 872.679
 872.367 872.367 872.055 872.055 872.367 872.211 872.523 872.523 872.523 872.991
 872.679 872.523 873.147 872.211 872.679 872.523 872.367 872.835 872.835 872.835
 872.679 872.679 872.679 872.679 872.679 872.835 872.835 872.835 872.991 872.679
 872.367 872.367 872.523 872.367 872.367 872.055 872.679 873.615 874.395 875.331
  875.64 875.952 876.417 876.573 877.194 877.194  877.35 877.506  877.35 877.194
  877.35 877.194  877.35  877.35  877.35  877.35 877.194 877.815 877.506 877.815
 878.127 877.971 877.971 878.283 878.436 878.592 878.436 878.748 879.057 879.213
 879.366 880.296 880.296 880.449 880.296 880.914  881.07  881.07 881.532 881.688
 881.841  882.15 882.459 882.768 882.921 883.077 883.539 884.463 885.693 886.308
 887.229 888.303 889.071 889.836 890.448 890.907 891.363 891.822 892.128 892.737
 893.043 893.043 893.346 893.652 893.652 893.958 893.958 893.958 894.261 894.567
 894.414 894.567  894.87 895.173 895.782 895.935 896.391 896.694  897.15   897.3
 897.906 898.059 898.362 898.968 899.724 899.874  900.48 900.933 901.236 901.989
 902.595 902.895 903.498 904.101 904.701 906.054 908.004 909.351 910.248 911.445
 912.339 913.233 914.127 914.574 915.465 915.912  916.95 917.544 917.838 918.285
 919.023 919.467 920.058 920.649 921.093 921.684 921.831 922.422 923.157 923.451
 924.189  924.63 925.218 925.365 925.953 926.391 926.979  927.42  927.42 928.005
 928.446 928.446 928.884 929.322 929.322 929.616 929.907 929.907 930.639 931.224
 931.077 925.218 925.365 925.806   926.1 926.391 926.538 927.858 928.152 929.031
 929.322 930.054 930.492  930.93 931.077 931.368 931.659 931.515 931.515 931.806
 932.244 932.244 932.097 931.806 932.097 931.953 932.535 932.244 932.535 932.097
 931.953 932.535 932.391 932.097 932.244 932.391 932.391 932.682 932.535 932.097
 932.097 932.391 932.391 932.244 931.953 931.953 931.953 932.097 931.806 931.806
 931.368 931.368 931.515 932.244 932.973 933.846 934.137 934.866 934.719 935.301
  935.01 935.154 935.154 934.866 935.301 934.866 934.719 934.575 934.284 934.137
 933.702 933.702 933.264 933.411 933.264 932.682 932.682 932.391 932.244 931.806
 931.515 931.077 930.786 930.639 930.786 930.345 930.201 930.054 929.469 929.469
 929.322 929.031 929.031 928.884 928.299 928.299 927.858 927.858 927.858 927.273
 926.979 926.538 926.832 926.538 926.832 927.126 927.273 927.567 927.711 927.711
 927.126 927.126 926.832 926.538 926.685 926.391 926.247 925.953 925.659 925.365
 925.218 924.777 924.336 924.336 924.042 923.895 923.451 922.716 922.569 922.275
 921.537 921.537  921.24 920.649 920.208 919.764  919.32 919.023 918.432 918.285
 918.285 917.544 917.097 916.653 916.356 915.615 915.318 914.871 914.277 913.977
  913.68 913.086 912.786 913.086 913.233 913.233 913.233 913.086 912.786 912.339
 912.042 911.595 911.295 910.398 909.801 909.501 908.604 908.004 907.554 906.804
 906.054 905.454 904.701 903.798 903.195 902.595 901.989 901.086  900.63 899.574
 898.665 897.756  897.15 896.391 895.326 894.567 893.499 892.584 891.669 890.754
 890.295 889.377 888.456 887.538 886.617 885.849 884.925 884.154 883.539 882.612
 881.841  881.07 880.449 879.831 879.522 879.213 878.748 878.436 877.815 877.041
 876.264 875.484 874.863 874.239 873.459 872.367 871.743 871.116 870.492 869.082
 868.611 867.825 866.727 865.782 865.308 864.048 863.418  862.47 861.678  860.73
 860.094 859.302  858.51 857.238 856.602 855.486 854.688 854.052 853.092 852.291
  851.01  850.53 849.408 848.925   847.8 846.996  846.03 845.544 844.899 844.092
 844.092 844.575 845.544 845.868 845.706 845.706 845.385 844.416  843.93  843.12
 842.799 841.989 841.179  840.69 840.366 839.718 838.905 838.416 837.927 837.438
 836.787  836.46 835.971 835.317 834.828 834.501 834.009 833.355  833.19 832.371
 831.717 830.565 830.403 829.743 829.416 828.921 828.591 828.261 828.261 828.096
 827.766 827.439 827.109 826.944 826.944 826.446 826.281 826.116 825.621 825.126
 825.126 825.126 824.793 824.793 824.793 824.958 824.793 824.793 824.793 825.291
 824.958 824.793 825.291 825.291 825.126 824.628 824.628 824.298 823.965 823.965
   823.8 823.965 823.635 823.302 823.302 822.804 822.306 822.141 821.976 821.475
 820.812 820.644 820.146  819.48 819.312 818.811 818.145 817.977 817.644 817.311
 816.138 816.306 815.805 815.301   814.8 814.464 813.792 813.288 812.616  812.28
 811.944  811.44 811.272 811.272 810.933 810.765 810.765 809.922 809.922 809.418
 808.911 808.743 808.236 807.726 807.051 806.712 806.373 805.524 805.524 805.017
 803.997 803.826 803.316 802.635 802.467 801.615 801.615  800.76 800.079 799.737
 799.053  798.54 798.369 798.198  797.34 796.827 796.482 795.795 795.795 795.108
 795.108 794.247 793.905  793.56 793.041  792.87  792.18 792.006  791.49 791.145
 790.797 790.452 790.107 789.933 789.759  789.24 788.721 788.721 788.721 788.547
 788.028 787.506 787.506 787.332 786.984 786.636 786.462 786.114 785.592 785.418
 785.418 784.722 784.548 784.026 783.675 782.979 782.454 781.929 781.755  781.23
 781.053 780.528 779.826 779.826  778.95  778.95 778.422 778.071  777.72 777.192
 777.015 776.487 776.133 775.605 775.074 774.723 774.369 774.192 773.484  773.13
 772.422 772.068 771.537 771.891  771.36  771.18 770.115 769.938 769.404  768.87