Proj Title=simple weir
Current Plan=p05
Default Exp/Contr=0.3,0.1
SI Units
Geom File=g05
Geom File=g04
Unsteady File=u02
Plan File=p05
Plan File=p10
Y Axis Title=Elevation
X Axis Title(PF)=Main Channel Distance
X Axis Title(XS)=Station
BEGIN DESCRIPTION:

END DESCRIPTION:
DSS Start Date=01SEP2012
DSS Start Time=0
DSS End Date=02NOV2012
DSS End Time=2315
DSS File=dss
DSS Export Filename=
DSS Export Rating Curves= 0 
DSS Export Rating Curve Sorted= 0 
DSS Export Volume Flow Curves= 0 
DXF Filename=..\simple bridge\simplebridge.
DXF OffsetX= 0 
DXF OffsetY= 0 
DXF ScaleX= 1 
DXF ScaleY= 10 
GIS Export Profiles= 0 
